ace_ohleu_agnh2_min
  Spartan 04082118563D

 46 45  0  0  0  0  0  0  0  0999 V2000
   -0.9170   -0.2210   -3.7800 H   0  0  0  0  0  0  0  0  0  0  0  0
   -0.9290   -0.0770   -2.6990 C   0  0  0  0  0  0  0  0  0  0  0  0
   -0.7290   -1.4070   -2.0520 N   0  0  0  0  0  0  0  0  0  0  0  0
    0.2200   -4.6190   -2.6940 H   0  0  0  0  0  0  0  0  0  0  0  0
    0.6950   -3.6870   -1.2540 H   0  0  0  0  0  0  0  0  0  0  0  0
   -1.0090   -4.1410   -1.4980 H   0  0  0  0  0  0  0  0  0  0  0  0
   -0.0880   -3.8400   -1.9970 C   0  0  0  0  0  0  0  0  0  0  0  0
    0.1840    0.8510   -2.3130 C   0  0  0  0  0  0  0  0  0  0  0  0
    0.7590    1.6350   -3.0770 O   0  0  0  0  0  0  0  0  0  0  0  0
   -3.0770   -0.1350   -2.6920 H   0  0  0  0  0  0  0  0  0  0  0  0
   -2.3540    0.6140   -1.2470 H   0  0  0  0  0  0  0  0  0  0  0  0
   -2.2900    0.5290   -2.3320 C   0  0  0  0  0  0  0  0  0  0  0  0
   -0.1730   -2.4570   -3.9550 O   0  0  0  0  0  0  0  0  0  0  0  0
   -1.6580    2.5480   -2.6550 H   0  0  0  0  0  0  0  0  0  0  0  0
   -2.5010    1.9220   -2.9480 C   0  0  0  0  0  0  0  0  0  0  0  0
   -2.6730    2.8690   -4.8800 H   0  0  0  0  0  0  0  0  0  0  0  0
   -1.5740    1.4700   -4.8450 H   0  0  0  0  0  0  0  0  0  0  0  0
   -3.3360    1.2180   -4.8110 H   0  0  0  0  0  0  0  0  0  0  0  0
   -2.5220    1.8660   -4.4820 C   0  0  0  0  0  0  0  0  0  0  0  0
   -3.9340    3.5280   -2.8600 H   0  0  0  0  0  0  0  0  0  0  0  0
   -4.6390    1.9040   -2.6800 H   0  0  0  0  0  0  0  0  0  0  0  0
   -3.7350    2.6360   -1.3330 H   0  0  0  0  0  0  0  0  0  0  0  0
   -3.7950    2.5420   -2.4170 C   0  0  0  0  0  0  0  0  0  0  0  0
    5.4450   -0.8010    1.5180 H   0  0  0  0  0  0  0  0  0  0  0  0
    4.0170   -0.5500    2.5510 H   0  0  0  0  0  0  0  0  0  0  0  0
    4.3590   -0.8750    1.5680 C   0  0  0  0  0  0  0  0  0  0  0  0
    2.5500    1.3020   -1.3460 H   0  0  0  0  0  0  0  0  0  0  0  0
    1.8620    1.2740   -0.5020 C   0  0  0  0  0  0  0  0  0  0  0  0
   -0.1430    0.3450   -0.2530 H   0  0  0  0  0  0  0  0  0  0  0  0
    0.5520    0.7780   -0.9730 N   0  0  0  0  0  0  0  0  0  0  0  0
    2.7010    3.0440    0.3990 H   0  0  0  0  0  0  0  0  0  0  0  0
    1.3570    3.3580   -0.7250 H   0  0  0  0  0  0  0  0  0  0  0  0
    1.0280    2.6910    0.8930 H   0  0  0  0  0  0  0  0  0  0  0  0
    1.7270    2.6940    0.0570 C   0  0  0  0  0  0  0  0  0  0  0  0
    2.4180    0.3470    0.5470 C   0  0  0  0  0  0  0  0  0  0  0  0
    1.7020   -0.1190    1.4250 O   0  0  0  0  0  0  0  0  0  0  0  0
    4.3910   -4.1180    0.2710 H   0  0  0  0  0  0  0  0  0  0  0  0
    5.4750   -2.6250   -0.1280 H   0  0  0  0  0  0  0  0  0  0  0  0
    4.6580   -3.0740    0.4370 N   0  0  0  0  0  0  0  0  0  0  0  0
    4.4110    0.4160   -0.2450 H   0  0  0  0  0  0  0  0  0  0  0  0
    3.7700    0.0130    0.5380 N   0  0  0  0  0  0  0  0  0  0  0  0
    3.0450   -2.8460    1.9990 O   0  0  0  0  0  0  0  0  0  0  0  0
    3.9590   -2.3170    1.3660 C   0  0  0  0  0  0  0  0  0  0  0  0
   -0.6480   -2.6510   -0.2840 H   0  0  0  0  0  0  0  0  0  0  0  0
   -0.8090   -1.6460   -0.6730 O   0  0  0  0  0  0  0  0  0  0  0  0
   -0.3210   -2.5600   -2.7490 C   0  0  0  0  0  0  0  0  0  0  0  0
  2  1  1  0  0  0  0
  2  3  1  0  0  0  0
  8  2  1  0  0  0  0
  2 12  1  0  0  0  0
  3 45  1  0  0  0  0
  3 46  1  0  0  0  0
  7  4  1  0  0  0  0
  7  5  1  0  0  0  0
  7  6  1  0  0  0  0
 46  7  1  0  0  0  0
  8  9  2  0  0  0  0
 30  8  1  0  0  0  0
 12 10  1  0  0  0  0
 12 11  1  0  0  0  0
 12 15  1  0  0  0  0
 46 13  2  0  0  0  0
 15 14  1  0  0  0  0
 15 19  1  0  0  0  0
 15 23  1  0  0  0  0
 19 16  1  0  0  0  0
 19 17  1  0  0  0  0
 19 18  1  0  0  0  0
 23 20  1  0  0  0  0
 23 21  1  0  0  0  0
 23 22  1  0  0  0  0
 26 24  1  0  0  0  0
 26 25  1  0  0  0  0
 26 41  1  0  0  0  0
 43 26  1  0  0  0  0
 28 27  1  0  0  0  0
 28 30  1  0  0  0  0
 28 34  1  0  0  0  0
 35 28  1  0  0  0  0
 30 29  1  0  0  0  0
 34 31  1  0  0  0  0
 34 32  1  0  0  0  0
 34 33  1  0  0  0  0
 35 36  2  0  0  0  0
 41 35  1  0  0  0  0
 39 37  1  0  0  0  0
 39 38  1  0  0  0  0
 39 43  1  0  0  0  0
 41 40  1  0  0  0  0
 43 42  2  0  0  0  0
 45 44  1  0  0  0  0
M  END
$$$$
