cbzphe_min
  Spartan 04082118473D

 38 39  0  0  0  0  0  0  0  0999 V2000
    0.0720    2.3730   -1.2570 O   0  0  0  0  0  0  0  0  0  0  0  0
    0.1200    1.3210   -2.1140 C   0  0  0  0  0  0  0  0  0  0  0  0
    0.5350    1.6400   -3.2430 O   0  0  0  0  0  0  0  0  0  0  0  0
   -1.0640    1.4860    0.2170 H   0  0  0  0  0  0  0  0  0  0  0  0
   -0.6900    3.2090    0.4660 H   0  0  0  0  0  0  0  0  0  0  0  0
   -0.9470    2.4520   -0.2750 C   0  0  0  0  0  0  0  0  0  0  0  0
   -2.2210    2.8280   -0.9690 C   0  0  0  0  0  0  0  0  0  0  0  0
   -2.7500    0.8250   -1.5620 H   0  0  0  0  0  0  0  0  0  0  0  0
   -3.0090    1.8820   -1.6230 C   0  0  0  0  0  0  0  0  0  0  0  0
   -4.7400    1.5400   -2.8600 H   0  0  0  0  0  0  0  0  0  0  0  0
   -4.1210    2.2800   -2.3510 C   0  0  0  0  0  0  0  0  0  0  0  0
   -5.3020    3.9490   -3.0110 H   0  0  0  0  0  0  0  0  0  0  0  0
   -4.4390    3.6320   -2.4250 C   0  0  0  0  0  0  0  0  0  0  0  0
   -1.9750    4.9060   -0.4940 H   0  0  0  0  0  0  0  0  0  0  0  0
   -2.5720    4.1680   -1.0300 C   0  0  0  0  0  0  0  0  0  0  0  0
   -3.9360    5.6400   -1.8220 H   0  0  0  0  0  0  0  0  0  0  0  0
   -3.6750    4.5830   -1.7650 C   0  0  0  0  0  0  0  0  0  0  0  0
   -1.0430    0.2120   -0.7640 H   0  0  0  0  0  0  0  0  0  0  0  0
   -0.3450    0.0790   -1.5910 N   0  0  0  0  0  0  0  0  0  0  0  0
    0.9600   -1.4680   -1.6780 H   0  0  0  0  0  0  0  0  0  0  0  0
   -0.1010   -1.3730   -1.9080 C   0  0  0  0  0  0  0  0  0  0  0  0
   -0.1410   -1.8010   -3.3550 C   0  0  0  0  0  0  0  0  0  0  0  0
   -0.0080   -1.0000   -4.2850 O   0  0  0  0  0  0  0  0  0  0  0  0
   -0.1790   -2.9080   -3.9600 O   0  0  0  0  0  0  0  0  0  0  0  0
   -0.9370   -1.8910    0.0080 H   0  0  0  0  0  0  0  0  0  0  0  0
   -1.8940   -2.4470   -1.3870 H   0  0  0  0  0  0  0  0  0  0  0  0
   -0.8850   -2.3210   -0.9920 C   0  0  0  0  0  0  0  0  0  0  0  0
   -0.2150   -3.6640   -0.9170 C   0  0  0  0  0  0  0  0  0  0  0  0
    1.6480   -2.8630   -0.1870 H   0  0  0  0  0  0  0  0  0  0  0  0
    1.1060   -3.7620   -0.4810 C   0  0  0  0  0  0  0  0  0  0  0  0
    2.7670   -5.0760   -0.0770 H   0  0  0  0  0  0  0  0  0  0  0  0
    1.7340   -5.0040   -0.4190 C   0  0  0  0  0  0  0  0  0  0  0  0
    1.5320   -7.1250   -0.7460 H   0  0  0  0  0  0  0  0  0  0  0  0
    1.0420   -6.1530   -0.7950 C   0  0  0  0  0  0  0  0  0  0  0  0
   -1.9350   -4.7440   -1.6380 H   0  0  0  0  0  0  0  0  0  0  0  0
   -0.9030   -4.8160   -1.2940 C   0  0  0  0  0  0  0  0  0  0  0  0
   -0.8190   -6.9580   -1.5300 H   0  0  0  0  0  0  0  0  0  0  0  0
   -0.2770   -6.0600   -1.2340 C   0  0  0  0  0  0  0  0  0  0  0  0
  1  2  1  0  0  0  0
  1  6  1  0  0  0  0
  2  3  2  0  0  0  0
  2 19  1  0  0  0  0
  6  4  1  0  0  0  0
  6  5  1  0  0  0  0
  6  7  1  0  0  0  0
  7  9  4  0  0  0  0
  7 15  4  0  0  0  0
  9  8  1  0  0  0  0
  9 11  4  0  0  0  0
 11 10  1  0  0  0  0
 11 13  4  0  0  0  0
 13 12  1  0  0  0  0
 13 17  4  0  0  0  0
 15 14  1  0  0  0  0
 15 17  4  0  0  0  0
 17 16  1  0  0  0  0
 19 18  1  0  0  0  0
 19 21  1  0  0  0  0
 21 20  1  0  0  0  0
 21 22  1  0  0  0  0
 21 27  1  0  0  0  0
 22 23  4  0  0  0  0
 22 24  4  0  0  0  0
 27 25  1  0  0  0  0
 27 26  1  0  0  0  0
 27 28  1  0  0  0  0
 28 30  4  0  0  0  0
 28 36  4  0  0  0  0
 30 29  1  0  0  0  0
 30 32  4  0  0  0  0
 32 31  1  0  0  0  0
 32 34  4  0  0  0  0
 34 33  1  0  0  0  0
 34 38  4  0  0  0  0
 36 35  1  0  0  0  0
 36 38  4  0  0  0  0
 38 37  1  0  0  0  0
M  END
$$$$
