nhohmalagnh2_min
  Spartan 04082118543D

 34 33  0  0  0  0  0  0  0  0999 V2000
    2.4900    1.2190   -1.2370 H   0  0  0  0  0  0  0  0  0  0  0  0
    1.8370    1.2030   -0.3640 C   0  0  0  0  0  0  0  0  0  0  0  0
   -0.2510    0.3920   -0.1900 H   0  0  0  0  0  0  0  0  0  0  0  0
    0.4700    0.8780   -0.8470 N   0  0  0  0  0  0  0  0  0  0  0  0
    2.8630    2.8040    0.6530 H   0  0  0  0  0  0  0  0  0  0  0  0
    1.5420    3.3390   -0.4130 H   0  0  0  0  0  0  0  0  0  0  0  0
    1.1690    2.5810    1.1540 H   0  0  0  0  0  0  0  0  0  0  0  0
    1.8540    2.5810    0.3060 C   0  0  0  0  0  0  0  0  0  0  0  0
    2.3730    0.1590    0.5800 C   0  0  0  0  0  0  0  0  0  0  0  0
    1.6480   -0.4120    1.3840 O   0  0  0  0  0  0  0  0  0  0  0  0
   -0.8290   -2.4880   -5.2610 H   0  0  0  0  0  0  0  0  0  0  0  0
   -1.6890   -2.5400   -4.5930 O   0  0  0  0  0  0  0  0  0  0  0  0
   -2.7050   -1.5780   -2.9040 H   0  0  0  0  0  0  0  0  0  0  0  0
   -1.8630   -1.5690   -3.5950 N   0  0  0  0  0  0  0  0  0  0  0  0
    5.4090   -0.9640    1.5550 H   0  0  0  0  0  0  0  0  0  0  0  0
    3.9570   -0.7990    2.5710 H   0  0  0  0  0  0  0  0  0  0  0  0
    4.3240   -1.0690    1.5810 C   0  0  0  0  0  0  0  0  0  0  0  0
    4.3790    0.3130   -0.1650 H   0  0  0  0  0  0  0  0  0  0  0  0
    3.7330   -0.1440    0.5840 N   0  0  0  0  0  0  0  0  0  0  0  0
    3.9710   -2.5110    1.3110 C   0  0  0  0  0  0  0  0  0  0  0  0
    3.0710   -3.0990    1.9120 O   0  0  0  0  0  0  0  0  0  0  0  0
   -0.8740   -0.5970   -3.5620 C   0  0  0  0  0  0  0  0  0  0  0  0
    0.0760   -0.8490   -4.2860 O   0  0  0  0  0  0  0  0  0  0  0  0
    0.1300    1.2070   -2.1580 C   0  0  0  0  0  0  0  0  0  0  0  0
    0.8440    1.9320   -2.8440 O   0  0  0  0  0  0  0  0  0  0  0  0
   -1.2170    1.4170   -3.6530 H   0  0  0  0  0  0  0  0  0  0  0  0
   -1.0820    0.6960   -2.8470 C   0  0  0  0  0  0  0  0  0  0  0  0
   -2.4490    1.8780   -1.6790 H   0  0  0  0  0  0  0  0  0  0  0  0
   -3.2280    0.8440   -2.9000 H   0  0  0  0  0  0  0  0  0  0  0  0
   -2.5760    0.1230   -1.4080 H   0  0  0  0  0  0  0  0  0  0  0  0
   -2.4300    0.9000   -2.1590 C   0  0  0  0  0  0  0  0  0  0  0  0
    4.4680   -4.2430    0.1380 H   0  0  0  0  0  0  0  0  0  0  0  0
    5.5080   -2.7000   -0.1810 H   0  0  0  0  0  0  0  0  0  0  0  0
    4.7010   -3.2010    0.3540 N   0  0  0  0  0  0  0  0  0  0  0  0
  2  1  1  0  0  0  0
  4  2  1  0  0  0  0
  2  8  1  0  0  0  0
  2  9  1  0  0  0  0
  4  3  1  0  0  0  0
 24  4  1  0  0  0  0
  8  5  1  0  0  0  0
  8  6  1  0  0  0  0
  8  7  1  0  0  0  0
  9 10  2  0  0  0  0
  9 19  1  0  0  0  0
 12 11  1  0  0  0  0
 14 12  1  0  0  0  0
 14 13  1  0  0  0  0
 22 14  1  0  0  0  0
 17 15  1  0  0  0  0
 17 16  1  0  0  0  0
 19 17  1  0  0  0  0
 17 20  1  0  0  0  0
 19 18  1  0  0  0  0
 20 34  1  0  0  0  0
 20 21  2  0  0  0  0
 22 23  2  0  0  0  0
 27 22  1  0  0  0  0
 24 25  2  0  0  0  0
 24 27  1  0  0  0  0
 27 26  1  0  0  0  0
 27 31  1  0  0  0  0
 31 28  1  0  0  0  0
 31 29  1  0  0  0  0
 31 30  1  0  0  0  0
 34 32  1  0  0  0  0
 34 33  1  0  0  0  0
M  END
$$$$
