nhohbzmoet_min
  Spartan 04082118473D

 32 32  0  0  0  0  0  0  0  0999 V2000
    1.8300    0.8440    0.3460 H   0  0  0  0  0  0  0  0  0  0  0  0
    2.0030    2.0400   -0.9600 H   0  0  0  0  0  0  0  0  0  0  0  0
    1.3140    1.6080   -0.2350 C   0  0  0  0  0  0  0  0  0  0  0  0
    0.2180    1.0160   -0.9210 O   0  0  0  0  0  0  0  0  0  0  0  0
    1.6620    3.1550    1.2270 H   0  0  0  0  0  0  0  0  0  0  0  0
    0.2990    3.4750    0.1280 H   0  0  0  0  0  0  0  0  0  0  0  0
    0.1260    2.2790    1.4350 H   0  0  0  0  0  0  0  0  0  0  0  0
    0.8140    2.7090    0.7070 C   0  0  0  0  0  0  0  0  0  0  0  0
   -0.7000   -2.8900   -4.9460 H   0  0  0  0  0  0  0  0  0  0  0  0
   -1.6960   -2.5440   -4.6730 O   0  0  0  0  0  0  0  0  0  0  0  0
   -2.8700   -1.0120   -3.8000 H   0  0  0  0  0  0  0  0  0  0  0  0
   -1.8560   -1.3200   -4.0570 N   0  0  0  0  0  0  0  0  0  0  0  0
   -0.8370   -0.4660   -3.7440 C   0  0  0  0  0  0  0  0  0  0  0  0
    0.1670   -0.8300   -4.3130 O   0  0  0  0  0  0  0  0  0  0  0  0
    0.0470    1.3120   -2.2280 C   0  0  0  0  0  0  0  0  0  0  0  0
    0.8140    2.0270   -2.8460 O   0  0  0  0  0  0  0  0  0  0  0  0
   -1.2140    1.4980   -3.8120 H   0  0  0  0  0  0  0  0  0  0  0  0
   -1.1020    0.7850   -2.9960 C   0  0  0  0  0  0  0  0  0  0  0  0
   -3.1980    0.2900   -2.8210 H   0  0  0  0  0  0  0  0  0  0  0  0
   -2.3980    0.6500   -1.2720 H   0  0  0  0  0  0  0  0  0  0  0  0
   -2.4620    0.9230   -2.3250 C   0  0  0  0  0  0  0  0  0  0  0  0
   -2.8320    2.3640   -2.4690 C   0  0  0  0  0  0  0  0  0  0  0  0
   -3.1710    2.7010   -0.3670 H   0  0  0  0  0  0  0  0  0  0  0  0
   -3.1520    3.1440   -1.3630 C   0  0  0  0  0  0  0  0  0  0  0  0
   -2.5510    2.3200   -4.6050 H   0  0  0  0  0  0  0  0  0  0  0  0
   -2.8010    2.9350   -3.7410 C   0  0  0  0  0  0  0  0  0  0  0  0
   -3.7040    5.1070   -0.6720 H   0  0  0  0  0  0  0  0  0  0  0  0
   -3.4470    4.4940   -1.5360 C   0  0  0  0  0  0  0  0  0  0  0  0
   -3.0540    4.7310   -4.9050 H   0  0  0  0  0  0  0  0  0  0  0  0
   -3.0870    4.2850   -3.9110 C   0  0  0  0  0  0  0  0  0  0  0  0
   -3.6510    6.1230   -2.9330 H   0  0  0  0  0  0  0  0  0  0  0  0
   -3.4170    5.0660   -2.8050 C   0  0  0  0  0  0  0  0  0  0  0  0
  3  1  1  0  0  0  0
  3  2  1  0  0  0  0
  4  3  1  0  0  0  0
  3  8  1  0  0  0  0
 15  4  1  0  0  0  0
  8  5  1  0  0  0  0
  8  6  1  0  0  0  0
  8  7  1  0  0  0  0
 10  9  1  0  0  0  0
 12 10  1  0  0  0  0
 12 11  1  0  0  0  0
 13 12  1  0  0  0  0
 13 14  2  0  0  0  0
 18 13  1  0  0  0  0
 15 16  2  0  0  0  0
 15 18  1  0  0  0  0
 18 17  1  0  0  0  0
 18 21  1  0  0  0  0
 21 19  1  0  0  0  0
 21 20  1  0  0  0  0
 21 22  1  0  0  0  0
 22 24  4  0  0  0  0
 22 26  4  0  0  0  0
 24 23  1  0  0  0  0
 24 28  4  0  0  0  0
 26 25  1  0  0  0  0
 26 30  4  0  0  0  0
 28 27  1  0  0  0  0
 28 32  4  0  0  0  0
 30 29  1  0  0  0  0
 30 32  4  0  0  0  0
 32 31  1  0  0  0  0
M  END
$$$$
