nhohbzmagna_min
  Spartan 04082118473D

 56 57  0  0  0  0  0  0  0  0999 V2000
    1.7140    2.4090   -0.7810 H   0  0  0  0  0  0  0  0  0  0  0  0
    1.1310    1.8000   -0.0890 C   0  0  0  0  0  0  0  0  0  0  0  0
   -0.7620    0.6480   -0.3260 H   0  0  0  0  0  0  0  0  0  0  0  0
    0.0110    1.2130   -0.8460 N   0  0  0  0  0  0  0  0  0  0  0  0
    1.4520    3.1300    1.5770 H   0  0  0  0  0  0  0  0  0  0  0  0
    0.0150    3.5110    0.5990 H   0  0  0  0  0  0  0  0  0  0  0  0
   -0.0090    2.1230    1.7120 H   0  0  0  0  0  0  0  0  0  0  0  0
    0.6100    2.7060    1.0310 C   0  0  0  0  0  0  0  0  0  0  0  0
    2.0520    0.7440    0.4550 C   0  0  0  0  0  0  0  0  0  0  0  0
    1.6730   -0.1910    1.1600 O   0  0  0  0  0  0  0  0  0  0  0  0
   -0.6920   -2.8920   -4.9390 H   0  0  0  0  0  0  0  0  0  0  0  0
   -1.6900   -2.5490   -4.6670 O   0  0  0  0  0  0  0  0  0  0  0  0
   -2.8740   -1.0230   -3.8080 H   0  0  0  0  0  0  0  0  0  0  0  0
   -1.8560   -1.3220   -4.0600 N   0  0  0  0  0  0  0  0  0  0  0  0
    3.9920   -0.5000    1.6280 H   0  0  0  0  0  0  0  0  0  0  0  0
    4.6270   -0.8270   -0.0020 H   0  0  0  0  0  0  0  0  0  0  0  0
    4.3980   -0.0470    0.7240 C   0  0  0  0  0  0  0  0  0  0  0  0
    3.7260    1.6680   -0.5220 H   0  0  0  0  0  0  0  0  0  0  0  0
    3.4000    0.8740    0.1500 N   0  0  0  0  0  0  0  0  0  0  0  0
    5.6540    0.6980    1.0630 C   0  0  0  0  0  0  0  0  0  0  0  0
    6.1960    0.5920    2.1620 O   0  0  0  0  0  0  0  0  0  0  0  0
   -0.8520   -0.4500   -3.7500 C   0  0  0  0  0  0  0  0  0  0  0  0
    0.1630   -0.8050   -4.3080 O   0  0  0  0  0  0  0  0  0  0  0  0
   -0.0550    1.3810   -2.2250 C   0  0  0  0  0  0  0  0  0  0  0  0
    0.7480    2.0520   -2.8580 O   0  0  0  0  0  0  0  0  0  0  0  0
   -1.2560    1.4840   -3.8630 H   0  0  0  0  0  0  0  0  0  0  0  0
   -1.1620    0.8050   -3.0160 C   0  0  0  0  0  0  0  0  0  0  0  0
   -3.2680    0.3240   -2.9200 H   0  0  0  0  0  0  0  0  0  0  0  0
   -2.5190    0.6570   -1.3400 H   0  0  0  0  0  0  0  0  0  0  0  0
   -2.5440    0.9440   -2.3910 C   0  0  0  0  0  0  0  0  0  0  0  0
   -2.8910    2.3920   -2.5300 C   0  0  0  0  0  0  0  0  0  0  0  0
   -3.2780    2.7130   -0.4340 H   0  0  0  0  0  0  0  0  0  0  0  0
   -3.2230    3.1660   -1.4240 C   0  0  0  0  0  0  0  0  0  0  0  0
   -2.5580    2.3660   -4.6600 H   0  0  0  0  0  0  0  0  0  0  0  0
   -2.8160    2.9760   -3.7940 C   0  0  0  0  0  0  0  0  0  0  0  0
   -3.7540    5.1320   -0.7240 H   0  0  0  0  0  0  0  0  0  0  0  0
   -3.4870    4.5240   -1.5880 C   0  0  0  0  0  0  0  0  0  0  0  0
   -3.0020    4.7910   -4.9430 H   0  0  0  0  0  0  0  0  0  0  0  0
   -3.0700    4.3340   -3.9550 C   0  0  0  0  0  0  0  0  0  0  0  0
   -3.6180    6.1720   -2.9700 H   0  0  0  0  0  0  0  0  0  0  0  0
   -3.4110    5.1090   -2.8490 C   0  0  0  0  0  0  0  0  0  0  0  0
    5.5640    1.5380   -0.9060 H   0  0  0  0  0  0  0  0  0  0  0  0
    6.1510    1.5350    0.0120 N   0  0  0  0  0  0  0  0  0  0  0  0
    7.3300    2.3800    0.0040 C   0  0  0  0  0  0  0  0  0  0  0  0
    8.2330    1.5900    1.8070 H   0  0  0  0  0  0  0  0  0  0  0  0
    8.3230    2.3110    0.9940 C   0  0  0  0  0  0  0  0  0  0  0  0
   10.1970    3.1210    1.7010 H   0  0  0  0  0  0  0  0  0  0  0  0
    9.4190    3.1620    0.9380 C   0  0  0  0  0  0  0  0  0  0  0  0
    9.5020    4.0720   -0.1180 C   0  0  0  0  0  0  0  0  0  0  0  0
    8.6230    4.8750   -1.9300 H   0  0  0  0  0  0  0  0  0  0  0  0
    8.5290    4.1540   -1.1180 C   0  0  0  0  0  0  0  0  0  0  0  0
    6.6670    3.3330   -1.8220 H   0  0  0  0  0  0  0  0  0  0  0  0
    7.4380    3.2950   -1.0520 C   0  0  0  0  0  0  0  0  0  0  0  0
   10.6620    4.9520   -0.1860 N   0  0  0  0  0  0  0  0  0  0  0  0
   10.7860    5.7560   -1.1460 O   0  0  0  0  0  0  0  0  0  0  0  0
   11.5460    4.8950    0.7080 O   0  0  0  0  0  0  0  0  0  0  0  0
  2  1  1  0  0  0  0
  4  2  1  0  0  0  0
  2  8  1  0  0  0  0
  2  9  1  0  0  0  0
  4  3  1  0  0  0  0
 24  4  1  0  0  0  0
  8  5  1  0  0  0  0
  8  6  1  0  0  0  0
  8  7  1  0  0  0  0
  9 10  2  0  0  0  0
  9 19  1  0  0  0  0
 12 11  1  0  0  0  0
 14 12  1  0  0  0  0
 14 13  1  0  0  0  0
 22 14  1  0  0  0  0
 17 15  1  0  0  0  0
 17 16  1  0  0  0  0
 19 17  1  0  0  0  0
 17 20  1  0  0  0  0
 19 18  1  0  0  0  0
 20 21  2  0  0  0  0
 20 43  1  0  0  0  0
 22 23  2  0  0  0  0
 27 22  1  0  0  0  0
 24 25  2  0  0  0  0
 24 27  1  0  0  0  0
 27 26  1  0  0  0  0
 27 30  1  0  0  0  0
 30 28  1  0  0  0  0
 30 29  1  0  0  0  0
 30 31  1  0  0  0  0
 31 33  4  0  0  0  0
 31 35  4  0  0  0  0
 33 32  1  0  0  0  0
 33 37  4  0  0  0  0
 35 34  1  0  0  0  0
 35 39  4  0  0  0  0
 37 36  1  0  0  0  0
 37 41  4  0  0  0  0
 39 38  1  0  0  0  0
 39 41  4  0  0  0  0
 41 40  1  0  0  0  0
 43 42  1  0  0  0  0
 43 44  1  0  0  0  0
 44 46  4  0  0  0  0
 44 53  4  0  0  0  0
 46 45  1  0  0  0  0
 46 48  4  0  0  0  0
 48 47  1  0  0  0  0
 48 49  4  0  0  0  0
 49 51  4  0  0  0  0
 49 54  1  0  0  0  0
 51 50  1  0  0  0  0
 51 53  4  0  0  0  0
 53 52  1  0  0  0  0
 54 55  2  0  0  0  0
 54 56  2  0  0  0  0
M  END
$$$$
