p_ophe_ome_leunh2_min
  Spartan 04082118543D

 41 41  0  0  0  0  0  0  0  0999 V2000
   -2.0330   -3.5170   -2.8310 O   0  0  0  0  0  0  0  0  0  0  0  0
   -1.0050   -2.2070   -2.7480 P   0  0  0  0  0  0  0  0  0  0  0  0
   -0.2430   -2.2440   -1.2680 O   0  0  0  0  0  0  0  0  0  0  0  0
    0.0070   -2.2300   -3.8850 O   0  0  0  0  0  0  0  0  0  0  0  0
   -2.8700   -1.0410   -3.3610 H   0  0  0  0  0  0  0  0  0  0  0  0
   -1.9810   -0.7760   -2.7880 N   0  0  0  0  0  0  0  0  0  0  0  0
   -1.2810    0.3860   -4.3870 H   0  0  0  0  0  0  0  0  0  0  0  0
   -1.5250    0.5290   -3.3340 C   0  0  0  0  0  0  0  0  0  0  0  0
   -0.2920    1.0370   -2.6450 C   0  0  0  0  0  0  0  0  0  0  0  0
    0.5230    1.7600   -3.2230 O   0  0  0  0  0  0  0  0  0  0  0  0
   -3.5740    1.1450   -3.5670 H   0  0  0  0  0  0  0  0  0  0  0  0
   -2.7890    1.7430   -2.0850 H   0  0  0  0  0  0  0  0  0  0  0  0
   -2.6550    1.5580   -3.1510 C   0  0  0  0  0  0  0  0  0  0  0  0
   -1.3100    3.1450   -3.6700 H   0  0  0  0  0  0  0  0  0  0  0  0
   -2.3550    2.8920   -3.8470 C   0  0  0  0  0  0  0  0  0  0  0  0
   -2.3460    3.7380   -5.8310 H   0  0  0  0  0  0  0  0  0  0  0  0
   -1.8990    2.0160   -5.7640 H   0  0  0  0  0  0  0  0  0  0  0  0
   -3.6000    2.5020   -5.5650 H   0  0  0  0  0  0  0  0  0  0  0  0
   -2.5650    2.7790   -5.3610 C   0  0  0  0  0  0  0  0  0  0  0  0
   -3.0170    4.9400   -3.7690 H   0  0  0  0  0  0  0  0  0  0  0  0
   -4.2870    3.7430   -3.4200 H   0  0  0  0  0  0  0  0  0  0  0  0
   -3.0400    4.1000   -2.2010 H   0  0  0  0  0  0  0  0  0  0  0  0
   -3.2380    3.9980   -3.2680 C   0  0  0  0  0  0  0  0  0  0  0  0
    0.7320    1.1020   -0.7480 H   0  0  0  0  0  0  0  0  0  0  0  0
   -0.9160    0.1800   -0.7670 H   0  0  0  0  0  0  0  0  0  0  0  0
   -0.1480    0.7520   -1.2880 N   0  0  0  0  0  0  0  0  0  0  0  0
   -1.5200   -4.7630   -3.1050 C   0  0  0  0  0  0  0  0  0  0  0  0
    0.2700   -4.5080   -1.9180 H   0  0  0  0  0  0  0  0  0  0  0  0
   -0.2940   -5.1700   -2.5750 C   0  0  0  0  0  0  0  0  0  0  0  0
    1.1490   -6.7640   -2.4800 H   0  0  0  0  0  0  0  0  0  0  0  0
    0.1980   -6.4310   -2.8970 C   0  0  0  0  0  0  0  0  0  0  0  0
   -0.1190   -8.2530   -4.0070 H   0  0  0  0  0  0  0  0  0  0  0  0
   -0.5170   -7.2720   -3.7490 C   0  0  0  0  0  0  0  0  0  0  0  0
   -2.2980   -7.5130   -4.9390 H   0  0  0  0  0  0  0  0  0  0  0  0
   -1.7410   -6.8570   -4.2700 C   0  0  0  0  0  0  0  0  0  0  0  0
   -3.2210   -5.2880   -4.3280 H   0  0  0  0  0  0  0  0  0  0  0  0
   -2.2540   -5.6060   -3.9390 C   0  0  0  0  0  0  0  0  0  0  0  0
   -0.2160   -2.7570    0.7320 H   0  0  0  0  0  0  0  0  0  0  0  0
   -1.8100   -2.3120    0.0750 H   0  0  0  0  0  0  0  0  0  0  0  0
   -1.0840   -3.8840   -0.3380 H   0  0  0  0  0  0  0  0  0  0  0  0
   -0.8760   -2.8340   -0.1330 C   0  0  0  0  0  0  0  0  0  0  0  0
  1  2  1  0  0  0  0
  1 27  1  0  0  0  0
  2  3  1  0  0  0  0
  2  4  2  0  0  0  0
  2  6  1  0  0  0  0
  3 41  1  0  0  0  0
  6  5  1  0  0  0  0
  6  8  1  0  0  0  0
  8  7  1  0  0  0  0
  8  9  1  0  0  0  0
  8 13  1  0  0  0  0
  9 10  2  0  0  0  0
  9 26  1  0  0  0  0
 13 11  1  0  0  0  0
 13 12  1  0  0  0  0
 13 15  1  0  0  0  0
 15 14  1  0  0  0  0
 15 19  1  0  0  0  0
 15 23  1  0  0  0  0
 19 16  1  0  0  0  0
 19 17  1  0  0  0  0
 19 18  1  0  0  0  0
 23 20  1  0  0  0  0
 23 21  1  0  0  0  0
 23 22  1  0  0  0  0
 26 24  1  0  0  0  0
 26 25  1  0  0  0  0
 27 29  4  0  0  0  0
 27 37  4  0  0  0  0
 29 28  1  0  0  0  0
 29 31  4  0  0  0  0
 31 30  1  0  0  0  0
 31 33  4  0  0  0  0
 33 32  1  0  0  0  0
 33 35  4  0  0  0  0
 35 34  1  0  0  0  0
 35 37  4  0  0  0  0
 37 36  1  0  0  0  0
 41 38  1  0  0  0  0
 41 39  1  0  0  0  0
 41 40  1  0  0  0  0
M  END
$$$$
