paaoh_min
  Spartan 04082118543D

 25 24  0  0  0  0  0  0  0  0999 V2000
   -0.1074   -1.8944   -2.0128 O   0  0  0  0  0  0  0  0  0  0  0  0
   -0.8284   -1.4184   -3.3168 P   0  0  0  0  0  0  0  0  0  0  0  0
    0.0176   -0.6664   -4.3018 O   0  0  0  0  0  0  0  0  0  0  0  0
   -1.4162   -2.5930   -4.2305 O   0  0  0  0  0  0  0  0  0  0  0  0
   -2.8177   -0.8358   -3.4449 H   0  0  0  0  0  0  0  0  0  0  0  0
   -1.9390   -0.5119   -2.9070 N   0  0  0  0  0  0  0  0  0  0  0  0
   -1.7900    1.1180   -4.1860 H   0  0  0  0  0  0  0  0  0  0  0  0
   -1.8330    0.9400   -3.1110 C   0  0  0  0  0  0  0  0  0  0  0  0
   -0.5750    1.4960   -2.5010 C   0  0  0  0  0  0  0  0  0  0  0  0
    0.2880    2.0960   -3.1500 O   0  0  0  0  0  0  0  0  0  0  0  0
   -2.9640    2.7280   -2.6930 H   0  0  0  0  0  0  0  0  0  0  0  0
   -3.9590    1.2920   -3.0300 H   0  0  0  0  0  0  0  0  0  0  0  0
   -3.1280    1.4510   -1.4640 H   0  0  0  0  0  0  0  0  0  0  0  0
   -3.0600    1.6540   -2.5330 C   0  0  0  0  0  0  0  0  0  0  0  0
    1.2650    2.5540   -1.1250 H   0  0  0  0  0  0  0  0  0  0  0  0
    0.7710    1.8680   -0.4370 C   0  0  0  0  0  0  0  0  0  0  0  0
   -1.1530    0.7530   -0.5650 H   0  0  0  0  0  0  0  0  0  0  0  0
   -0.4080    1.3120   -1.1310 N   0  0  0  0  0  0  0  0  0  0  0  0
    1.2360    3.0610    1.2970 H   0  0  0  0  0  0  0  0  0  0  0  0
   -0.3020    3.4830    0.5060 H   0  0  0  0  0  0  0  0  0  0  0  0
   -0.1840    2.0050    1.4910 H   0  0  0  0  0  0  0  0  0  0  0  0
    0.3500    2.6620    0.8040 C   0  0  0  0  0  0  0  0  0  0  0  0
    1.7670    0.7960   -0.0890 C   0  0  0  0  0  0  0  0  0  0  0  0
    1.4430   -0.1290    0.7190 O   0  0  0  0  0  0  0  0  0  0  0  0
    2.9220    0.8820   -0.6060 O   0  0  0  0  0  0  0  0  0  0  0  0
  2  1  4  0  0  0  0
  2  3  4  0  0  0  0
  2  4  1  0  0  0  0
  6  2  1  0  0  0  0
  6  5  1  0  0  0  0
  8  6  1  0  0  0  0
  8  7  1  0  0  0  0
  9  8  1  0  0  0  0
  8 14  1  0  0  0  0
  9 10  2  0  0  0  0
 18  9  1  0  0  0  0
 14 11  1  0  0  0  0
 14 12  1  0  0  0  0
 14 13  1  0  0  0  0
 16 15  1  0  0  0  0
 16 18  1  0  0  0  0
 16 22  1  0  0  0  0
 16 23  1  0  0  0  0
 18 17  1  0  0  0  0
 22 19  1  0  0  0  0
 22 20  1  0  0  0  0
 22 21  1  0  0  0  0
 23 24  4  0  0  0  0
 23 25  4  0  0  0  0
M  END
$$$$
