po3_fagnh2_min
  Spartan 04082118533D

 44 44  0  0  0  0  0  0  0  0999 V2000
   -1.9360    1.0280   -3.9570 H   0  0  0  0  0  0  0  0  0  0  0  0
   -1.7870    0.8180   -2.8980 C   0  0  0  0  0  0  0  0  0  0  0  0
   -1.8750   -0.8400   -1.6640 H   0  0  0  0  0  0  0  0  0  0  0  0
   -1.9010   -0.6450   -2.7370 N   0  0  0  0  0  0  0  0  0  0  0  0
   -3.8450    1.0560   -2.3070 H   0  0  0  0  0  0  0  0  0  0  0  0
   -2.6640    1.5850   -1.0850 H   0  0  0  0  0  0  0  0  0  0  0  0
   -2.8970    1.5690   -2.1500 C   0  0  0  0  0  0  0  0  0  0  0  0
   -0.4100    1.3320   -2.5710 C   0  0  0  0  0  0  0  0  0  0  0  0
    0.1940    1.8750   -3.4940 O   0  0  0  0  0  0  0  0  0  0  0  0
   -3.0110    2.9820   -2.6530 C   0  0  0  0  0  0  0  0  0  0  0  0
   -3.7340    3.7520   -0.7760 H   0  0  0  0  0  0  0  0  0  0  0  0
   -3.4600    3.9910   -1.8040 C   0  0  0  0  0  0  0  0  0  0  0  0
   -2.3420    2.5080   -4.6460 H   0  0  0  0  0  0  0  0  0  0  0  0
   -2.6750    3.2960   -3.9700 C   0  0  0  0  0  0  0  0  0  0  0  0
   -3.9230    6.0860   -1.5930 H   0  0  0  0  0  0  0  0  0  0  0  0
   -3.5620    5.3030   -2.2600 C   0  0  0  0  0  0  0  0  0  0  0  0
   -2.4890    4.8480   -5.4540 H   0  0  0  0  0  0  0  0  0  0  0  0
   -2.7640    4.6080   -4.4270 C   0  0  0  0  0  0  0  0  0  0  0  0
   -3.2670    6.6440   -3.9240 H   0  0  0  0  0  0  0  0  0  0  0  0
   -3.2040    5.6150   -3.5700 C   0  0  0  0  0  0  0  0  0  0  0  0
    5.0890   -0.2840    1.4010 H   0  0  0  0  0  0  0  0  0  0  0  0
    3.5680    0.0050    2.2790 H   0  0  0  0  0  0  0  0  0  0  0  0
    4.0060   -0.4030    1.3680 C   0  0  0  0  0  0  0  0  0  0  0  0
   -0.7530   -1.7270   -3.4590 P   0  0  0  0  0  0  0  0  0  0  0  0
    2.1550    1.2060   -1.9990 H   0  0  0  0  0  0  0  0  0  0  0  0
    1.5980    1.4500   -1.0940 C   0  0  0  0  0  0  0  0  0  0  0  0
   -0.4430    0.7520   -0.4970 H   0  0  0  0  0  0  0  0  0  0  0  0
    0.1630    1.1370   -1.3180 N   0  0  0  0  0  0  0  0  0  0  0  0
    2.8410    3.1520   -0.6390 H   0  0  0  0  0  0  0  0  0  0  0  0
    1.4220    3.5280   -1.6450 H   0  0  0  0  0  0  0  0  0  0  0  0
    1.2210    3.2090    0.0950 H   0  0  0  0  0  0  0  0  0  0  0  0
    1.7840    2.9430   -0.8000 C   0  0  0  0  0  0  0  0  0  0  0  0
    2.1250    0.6300    0.0480 C   0  0  0  0  0  0  0  0  0  0  0  0
    1.3200    0.2220    0.8710 O   0  0  0  0  0  0  0  0  0  0  0  0
    4.3010   -3.7830    0.5040 H   0  0  0  0  0  0  0  0  0  0  0  0
    5.3900   -2.3080    0.0550 H   0  0  0  0  0  0  0  0  0  0  0  0
    4.5180   -2.7170    0.5660 N   0  0  0  0  0  0  0  0  0  0  0  0
    4.1810    0.7120   -0.5480 H   0  0  0  0  0  0  0  0  0  0  0  0
    3.4800    0.3560    0.2080 N   0  0  0  0  0  0  0  0  0  0  0  0
    0.0233   -2.5931   -2.3602 O   0  0  0  0  0  0  0  0  0  0  0  0
    0.3000   -0.8600   -4.4050 O   0  0  0  0  0  0  0  0  0  0  0  0
    2.7150   -2.3670    1.8780 O   0  0  0  0  0  0  0  0  0  0  0  0
    3.6840   -1.8780    1.2970 C   0  0  0  0  0  0  0  0  0  0  0  0
   -1.5570   -2.6900   -4.5270 O   0  0  0  0  0  0  0  0  0  0  0  0
  2  4  1  0  0  0  0
  2  7  1  0  0  0  0
  8  2  1  0  0  0  0
  4 24  1  0  0  0  0
  7 10  1  0  0  0  0
  8  9  2  0  0  0  0
 28  8  1  0  0  0  0
 10 12  4  0  0  0  0
 10 14  4  0  0  0  0
 12 16  4  0  0  0  0
 14 18  4  0  0  0  0
 16 20  4  0  0  0  0
 18 20  4  0  0  0  0
 39 23  1  0  0  0  0
 23 43  1  0  0  0  0
 24 40  1  0  0  0  0
 24 41  4  0  0  0  0
 24 44  4  0  0  0  0
 26 28  1  0  0  0  0
 26 32  1  0  0  0  0
 33 26  1  0  0  0  0
 33 34  2  0  0  0  0
 33 39  1  0  0  0  0
 43 37  1  0  0  0  0
 43 42  2  0  0  0  0
 39 38  1  0  0  0  0
 37 35  1  0  0  0  0
 37 36  1  0  0  0  0
 32 29  1  0  0  0  0
 32 30  1  0  0  0  0
 32 31  1  0  0  0  0
 28 27  1  0  0  0  0
 26 25  1  0  0  0  0
 23 21  1  0  0  0  0
 23 22  1  0  0  0  0
 20 19  1  0  0  0  0
 18 17  1  0  0  0  0
 16 15  1  0  0  0  0
 14 13  1  0  0  0  0
 12 11  1  0  0  0  0
  7  5  1  0  0  0  0
  7  6  1  0  0  0  0
  4  3  1  0  0  0  0
  2  1  1  0  0  0  0
M  END
$$$$
