ppheoh_min
  Spartan 04082118533D

 25 25  0  0  0  0  0  0  0  0999 V2000
   -1.4480    1.7120   -4.7970 H   0  0  0  0  0  0  0  0  0  0  0  0
   -3.1100    1.1430   -4.5140 H   0  0  0  0  0  0  0  0  0  0  0  0
   -2.2650    1.6750   -4.0770 C   0  0  0  0  0  0  0  0  0  0  0  0
    0.0030   -2.3702   -2.3297 O   0  0  0  0  0  0  0  0  0  0  0  0
   -0.7600   -1.6010   -3.5070 P   0  0  0  0  0  0  0  0  0  0  0  0
    0.2950   -0.7560   -4.4720 O   0  0  0  0  0  0  0  0  0  0  0  0
   -1.5250   -2.6600   -4.5190 O   0  0  0  0  0  0  0  0  0  0  0  0
   -2.8490   -0.6900   -3.4920 H   0  0  0  0  0  0  0  0  0  0  0  0
   -1.9590   -0.5210   -2.8860 N   0  0  0  0  0  0  0  0  0  0  0  0
   -2.4830    1.2680   -2.0250 H   0  0  0  0  0  0  0  0  0  0  0  0
   -1.8000    0.9470   -2.8110 C   0  0  0  0  0  0  0  0  0  0  0  0
   -0.4330    1.3720   -2.3560 C   0  0  0  0  0  0  0  0  0  0  0  0
    0.3920    1.9790   -3.0430 O   0  0  0  0  0  0  0  0  0  0  0  0
   -0.1630    1.0450   -1.0700 O   0  0  0  0  0  0  0  0  0  0  0  0
   -2.6830    3.0740   -3.7180 C   0  0  0  0  0  0  0  0  0  0  0  0
   -2.0000    3.9460   -5.5650 H   0  0  0  0  0  0  0  0  0  0  0  0
   -2.4660    4.1310   -4.5970 C   0  0  0  0  0  0  0  0  0  0  0  0
   -3.4780    2.4960   -1.7990 H   0  0  0  0  0  0  0  0  0  0  0  0
   -3.2930    3.3210   -2.4870 C   0  0  0  0  0  0  0  0  0  0  0  0
   -2.6690    6.2500   -4.9350 H   0  0  0  0  0  0  0  0  0  0  0  0
   -2.8420    5.4260   -4.2430 C   0  0  0  0  0  0  0  0  0  0  0  0
   -4.1420    4.7980   -1.1650 H   0  0  0  0  0  0  0  0  0  0  0  0
   -3.6690    4.6140   -2.1290 C   0  0  0  0  0  0  0  0  0  0  0  0
   -3.7270    6.6850   -2.7290 H   0  0  0  0  0  0  0  0  0  0  0  0
   -3.4400    5.6710   -3.0070 C   0  0  0  0  0  0  0  0  0  0  0  0
 11  3  1  0  0  0  0
  3 15  1  0  0  0  0
  5  4  1  0  0  0  0
  9  5  1  0  0  0  0
  5  6  4  0  0  0  0
  5  7  4  0  0  0  0
  9 11  1  0  0  0  0
 11 12  1  0  0  0  0
 12 13  4  0  0  0  0
 12 14  4  0  0  0  0
 15 17  4  0  0  0  0
 15 19  4  0  0  0  0
 17 21  4  0  0  0  0
 19 23  4  0  0  0  0
 21 25  4  0  0  0  0
 23 25  4  0  0  0  0
 25 24  1  0  0  0  0
 23 22  1  0  0  0  0
 21 20  1  0  0  0  0
 19 18  1  0  0  0  0
 17 16  1  0  0  0  0
 11 10  1  0  0  0  0
  9  8  1  0  0  0  0
  3  1  1  0  0  0  0
  3  2  1  0  0  0  0
M  END
$$$$
