r_thiorphan_min
  Spartan 04082118453D

 31 31  0  0  0  0  0  0  0  0999 V2000
   -0.2420   -3.0990   -3.6240 H   0  0  0  0  0  0  0  0  0  0  0  0
   -0.1760   -2.0110   -3.6280 S   0  0  0  0  0  0  0  0  0  0  0  0
   -2.5070   -1.6310   -3.1550 H   0  0  0  0  0  0  0  0  0  0  0  0
   -1.5340   -1.6840   -1.6660 H   0  0  0  0  0  0  0  0  0  0  0  0
   -1.5730   -1.3140   -2.6900 C   0  0  0  0  0  0  0  0  0  0  0  0
   -1.2460    0.5180   -3.6830 H   0  0  0  0  0  0  0  0  0  0  0  0
   -1.5190    0.2200   -2.6710 C   0  0  0  0  0  0  0  0  0  0  0  0
   -3.6710    0.2580   -2.7420 H   0  0  0  0  0  0  0  0  0  0  0  0
   -2.9740    0.8770   -1.2250 H   0  0  0  0  0  0  0  0  0  0  0  0
   -2.8650    0.8520   -2.3100 C   0  0  0  0  0  0  0  0  0  0  0  0
   -2.9320    2.2470   -2.8480 C   0  0  0  0  0  0  0  0  0  0  0  0
   -2.2560    1.6630   -4.8100 H   0  0  0  0  0  0  0  0  0  0  0  0
   -2.5690    2.4900   -4.1730 C   0  0  0  0  0  0  0  0  0  0  0  0
   -3.6420    3.1090   -1.0040 H   0  0  0  0  0  0  0  0  0  0  0  0
   -3.3500    3.3000   -2.0360 C   0  0  0  0  0  0  0  0  0  0  0  0
   -2.3150    3.9740   -5.7160 H   0  0  0  0  0  0  0  0  0  0  0  0
   -2.6050    3.7840   -4.6830 C   0  0  0  0  0  0  0  0  0  0  0  0
   -3.7230    5.4190   -1.9140 H   0  0  0  0  0  0  0  0  0  0  0  0
   -3.3930    4.5950   -2.5460 C   0  0  0  0  0  0  0  0  0  0  0  0
   -3.0370    5.8520   -4.2610 H   0  0  0  0  0  0  0  0  0  0  0  0
   -3.0140    4.8360   -3.8670 C   0  0  0  0  0  0  0  0  0  0  0  0
   -0.6100    0.4290   -0.6510 H   0  0  0  0  0  0  0  0  0  0  0  0
   -0.5300    0.6970   -1.7040 N   0  0  0  0  0  0  0  0  0  0  0  0
    0.5100    1.4950   -2.1530 C   0  0  0  0  0  0  0  0  0  0  0  0
    0.5400    1.8230   -3.3380 O   0  0  0  0  0  0  0  0  0  0  0  0
    2.4220    2.3260   -1.7430 H   0  0  0  0  0  0  0  0  0  0  0  0
    1.1370    2.8190   -0.6150 H   0  0  0  0  0  0  0  0  0  0  0  0
    1.5500    1.9870   -1.1840 C   0  0  0  0  0  0  0  0  0  0  0  0
    1.9730    0.9070   -0.2300 C   0  0  0  0  0  0  0  0  0  0  0  0
    1.2010    0.3830    0.5640 O   0  0  0  0  0  0  0  0  0  0  0  0
    3.2720    0.5410   -0.2350 O   0  0  0  0  0  0  0  0  0  0  0  0
  2  5  1  0  0  0  0
  5  7  1  0  0  0  0
  7 10  1  0  0  0  0
  7 23  1  0  0  0  0
 10 11  1  0  0  0  0
 11 13  4  0  0  0  0
 11 15  4  0  0  0  0
 13 17  4  0  0  0  0
 15 19  4  0  0  0  0
 17 21  4  0  0  0  0
 19 21  4  0  0  0  0
 23 24  1  0  0  0  0
 24 25  2  0  0  0  0
 24 28  1  0  0  0  0
 28 29  1  0  0  0  0
 29 30  4  0  0  0  0
 29 31  4  0  0  0  0
 28 26  1  0  0  0  0
 28 27  1  0  0  0  0
 23 22  1  0  0  0  0
 21 20  1  0  0  0  0
 19 18  1  0  0  0  0
 17 16  1  0  0  0  0
 15 14  1  0  0  0  0
 13 12  1  0  0  0  0
 10  8  1  0  0  0  0
 10  9  1  0  0  0  0
  7  6  1  0  0  0  0
  5  3  1  0  0  0  0
  5  4  1  0  0  0  0
  2  1  1  0  0  0  0
M  END
$$$$
