z_d_apola_min
  Spartan 04082118533D

 57 57  0  0  0  0  0  0  0  0999 V2000
    0.2950   -4.7670   -0.9900 C   0  0  0  0  0  0  0  0  0  0  0  0
    1.5170   -4.6620   -0.8360 O   0  0  0  0  0  0  0  0  0  0  0  0
   -0.4340   -5.7510   -0.4120 O   0  0  0  0  0  0  0  0  0  0  0  0
    1.2520   -6.7660    0.2020 H   0  0  0  0  0  0  0  0  0  0  0  0
    0.2170   -6.1380    1.5060 H   0  0  0  0  0  0  0  0  0  0  0  0
    0.2220   -6.6020    0.5200 C   0  0  0  0  0  0  0  0  0  0  0  0
   -0.4980   -7.9090    0.5780 C   0  0  0  0  0  0  0  0  0  0  0  0
   -1.8030   -7.3160    2.1890 H   0  0  0  0  0  0  0  0  0  0  0  0
   -1.5240   -8.1120    1.4990 C   0  0  0  0  0  0  0  0  0  0  0  0
    0.6490   -8.7560   -1.0370 H   0  0  0  0  0  0  0  0  0  0  0  0
   -0.1480   -8.9200   -0.3120 C   0  0  0  0  0  0  0  0  0  0  0  0
   -2.9900   -9.4950    2.2580 H   0  0  0  0  0  0  0  0  0  0  0  0
   -2.1910   -9.3330    1.5350 C   0  0  0  0  0  0  0  0  0  0  0  0
   -0.5390  -10.9350   -0.9680 H   0  0  0  0  0  0  0  0  0  0  0  0
   -0.8160  -10.1410   -0.2740 C   0  0  0  0  0  0  0  0  0  0  0  0
   -2.3600  -11.3040    0.6780 H   0  0  0  0  0  0  0  0  0  0  0  0
   -1.8370  -10.3480    0.6490 C   0  0  0  0  0  0  0  0  0  0  0  0
   -1.5090   -4.1390   -2.0190 H   0  0  0  0  0  0  0  0  0  0  0  0
   -0.4860   -3.8870   -1.7410 N   0  0  0  0  0  0  0  0  0  0  0  0
    1.0740   -2.8480   -2.6080 H   0  0  0  0  0  0  0  0  0  0  0  0
    0.1170   -2.6080   -2.1430 C   0  0  0  0  0  0  0  0  0  0  0  0
   -0.8180   -1.6990   -3.4150 P   0  0  0  0  0  0  0  0  0  0  0  0
    0.1130   -0.9620   -4.2970 O   0  0  0  0  0  0  0  0  0  0  0  0
   -1.6020   -2.7950   -4.3660 O   0  0  0  0  0  0  0  0  0  0  0  0
    0.7600   -0.7880   -1.1950 H   0  0  0  0  0  0  0  0  0  0  0  0
   -0.6530   -1.5570   -0.4320 H   0  0  0  0  0  0  0  0  0  0  0  0
    0.9700   -2.2500   -0.2020 H   0  0  0  0  0  0  0  0  0  0  0  0
    0.3130   -1.7390   -0.9050 C   0  0  0  0  0  0  0  0  0  0  0  0
   -1.8470   -0.6410   -2.6440 O   0  0  0  0  0  0  0  0  0  0  0  0
   -1.7040    0.8010   -4.0480 H   0  0  0  0  0  0  0  0  0  0  0  0
   -1.7570    0.7640   -2.9600 C   0  0  0  0  0  0  0  0  0  0  0  0
   -0.5060    1.4190   -2.4170 C   0  0  0  0  0  0  0  0  0  0  0  0
    0.3300    2.0100   -3.1120 O   0  0  0  0  0  0  0  0  0  0  0  0
   -3.8900    1.0730   -2.9040 H   0  0  0  0  0  0  0  0  0  0  0  0
   -3.0390    1.5550   -1.4170 H   0  0  0  0  0  0  0  0  0  0  0  0
   -2.9940    1.5490   -2.5060 C   0  0  0  0  0  0  0  0  0  0  0  0
   -1.9130    3.3680   -2.7990 H   0  0  0  0  0  0  0  0  0  0  0  0
   -2.9120    2.9930   -3.0210 C   0  0  0  0  0  0  0  0  0  0  0  0
   -3.0500    4.0870   -4.8790 H   0  0  0  0  0  0  0  0  0  0  0  0
   -2.3390    2.4630   -5.0360 H   0  0  0  0  0  0  0  0  0  0  0  0
   -4.0930    2.6480   -4.7970 H   0  0  0  0  0  0  0  0  0  0  0  0
   -3.1130    3.0520   -4.5440 C   0  0  0  0  0  0  0  0  0  0  0  0
   -3.8450    4.9030   -2.6920 H   0  0  0  0  0  0  0  0  0  0  0  0
   -4.9310    3.5080   -2.4860 H   0  0  0  0  0  0  0  0  0  0  0  0
   -3.7190    3.8850   -1.2380 H   0  0  0  0  0  0  0  0  0  0  0  0
   -3.9240    3.8860   -2.3080 C   0  0  0  0  0  0  0  0  0  0  0  0
   -1.1020    0.8370   -0.4380 H   0  0  0  0  0  0  0  0  0  0  0  0
   -0.3610    1.3790   -1.0250 N   0  0  0  0  0  0  0  0  0  0  0  0
    1.2360    2.7100   -1.0310 H   0  0  0  0  0  0  0  0  0  0  0  0
    0.7520    2.0380   -0.3220 C   0  0  0  0  0  0  0  0  0  0  0  0
    1.7940    1.0470    0.1380 C   0  0  0  0  0  0  0  0  0  0  0  0
    1.6610    0.2850    1.0920 O   0  0  0  0  0  0  0  0  0  0  0  0
    1.0650    3.3430    1.3690 H   0  0  0  0  0  0  0  0  0  0  0  0
   -0.4600    3.6250    0.4960 H   0  0  0  0  0  0  0  0  0  0  0  0
   -0.2920    2.2080    1.5590 H   0  0  0  0  0  0  0  0  0  0  0  0
    0.2280    2.8630    0.8610 C   0  0  0  0  0  0  0  0  0  0  0  0
    2.9400    1.0130   -0.5710 O   0  0  0  0  0  0  0  0  0  0  0  0
  1  2  2  0  0  0  0
  1  3  1  0  0  0  0
  1 19  1  0  0  0  0
  3  6  1  0  0  0  0
  6  7  1  0  0  0  0
  7  9  4  0  0  0  0
  7 11  4  0  0  0  0
  9 13  4  0  0  0  0
 11 15  4  0  0  0  0
 13 17  4  0  0  0  0
 15 17  4  0  0  0  0
 19 21  1  0  0  0  0
 21 22  1  0  0  0  0
 21 28  1  0  0  0  0
 22 23  4  0  0  0  0
 22 24  4  0  0  0  0
 22 29  1  0  0  0  0
 29 31  1  0  0  0  0
 31 32  1  0  0  0  0
 31 36  1  0  0  0  0
 32 33  2  0  0  0  0
 32 48  1  0  0  0  0
 36 38  1  0  0  0  0
 38 42  1  0  0  0  0
 38 46  1  0  0  0  0
 48 50  1  0  0  0  0
 50 51  1  0  0  0  0
 50 56  1  0  0  0  0
 51 52  4  0  0  0  0
 51 57  4  0  0  0  0
 56 53  1  0  0  0  0
 56 54  1  0  0  0  0
 56 55  1  0  0  0  0
 50 49  1  0  0  0  0
 48 47  1  0  0  0  0
 46 43  1  0  0  0  0
 46 44  1  0  0  0  0
 46 45  1  0  0  0  0
 42 39  1  0  0  0  0
 42 40  1  0  0  0  0
 42 41  1  0  0  0  0
 38 37  1  0  0  0  0
 36 34  1  0  0  0  0
 36 35  1  0  0  0  0
 31 30  1  0  0  0  0
 28 25  1  0  0  0  0
 28 26  1  0  0  0  0
 28 27  1  0  0  0  0
 21 20  1  0  0  0  0
 19 18  1  0  0  0  0
 17 16  1  0  0  0  0
 15 14  1  0  0  0  0
 13 12  1  0  0  0  0
 11 10  1  0  0  0  0
  9  8  1  0  0  0  0
  6  4  1  0  0  0  0
  6  5  1  0  0  0  0
M  END
$$$$
