z_nh_glnh2_min
  Spartan 04082118453D

 45 45  0  0  0  0  0  0  0  0999 V2000
    7.4290    2.9880   -1.3290 H   0  0  0  0  0  0  0  0  0  0  0  0
    7.3310    2.3540   -0.4480 C   0  0  0  0  0  0  0  0  0  0  0  0
    5.2960    1.8000   -0.8870 H   0  0  0  0  0  0  0  0  0  0  0  0
    6.1340    1.6860   -0.1980 C   0  0  0  0  0  0  0  0  0  0  0  0
   -1.7420   -0.8690   -1.3740 H   0  0  0  0  0  0  0  0  0  0  0  0
   -1.3840   -0.2300   -2.1820 C   0  0  0  0  0  0  0  0  0  0  0  0
    6.0010    0.8730    0.9260 C   0  0  0  0  0  0  0  0  0  0  0  0
    0.0990    0.0140   -0.6120 H   0  0  0  0  0  0  0  0  0  0  0  0
   -0.1670    0.3500   -1.6150 N   0  0  0  0  0  0  0  0  0  0  0  0
    2.5150    2.3410   -1.4880 H   0  0  0  0  0  0  0  0  0  0  0  0
    1.6660    1.6980   -1.2530 N   0  0  0  0  0  0  0  0  0  0  0  0
    0.3620    1.2000    0.4590 H   0  0  0  0  0  0  0  0  0  0  0  0
    1.3820    1.1570    0.0780 N   0  0  0  0  0  0  0  0  0  0  0  0
    0.6940    1.2770   -2.1970 C   0  0  0  0  0  0  0  0  0  0  0  0
    0.6530    1.6870   -3.3650 O   0  0  0  0  0  0  0  0  0  0  0  0
    6.9790    0.1000    2.6850 H   0  0  0  0  0  0  0  0  0  0  0  0
    7.0760    0.7340    1.8030 C   0  0  0  0  0  0  0  0  0  0  0  0
   -3.4120    0.1820   -2.7590 H   0  0  0  0  0  0  0  0  0  0  0  0
   -2.8640    1.0650   -1.3140 H   0  0  0  0  0  0  0  0  0  0  0  0
   -2.5860    0.7370   -2.3160 C   0  0  0  0  0  0  0  0  0  0  0  0
   -1.2060   -1.2950   -3.2220 C   0  0  0  0  0  0  0  0  0  0  0  0
   -0.3590   -1.2780   -4.1140 O   0  0  0  0  0  0  0  0  0  0  0  0
   -1.3630    2.3820   -2.9170 H   0  0  0  0  0  0  0  0  0  0  0  0
   -2.3480    1.9900   -3.1720 C   0  0  0  0  0  0  0  0  0  0  0  0
   -2.1770    2.5800   -5.2370 H   0  0  0  0  0  0  0  0  0  0  0  0
   -1.5560    0.9490   -4.8840 H   0  0  0  0  0  0  0  0  0  0  0  0
   -3.3110    1.2390   -4.9470 H   0  0  0  0  0  0  0  0  0  0  0  0
   -2.3480    1.6660   -4.6680 C   0  0  0  0  0  0  0  0  0  0  0  0
   -3.2370    3.9300   -3.4790 H   0  0  0  0  0  0  0  0  0  0  0  0
   -4.4010    2.6410   -3.0920 H   0  0  0  0  0  0  0  0  0  0  0  0
   -3.3650    3.3180   -1.8130 H   0  0  0  0  0  0  0  0  0  0  0  0
   -3.4150    3.0460   -2.8670 C   0  0  0  0  0  0  0  0  0  0  0  0
   -2.1080   -3.1490   -3.8340 H   0  0  0  0  0  0  0  0  0  0  0  0
   -2.9020   -2.2920   -2.3510 H   0  0  0  0  0  0  0  0  0  0  0  0
   -2.1390   -2.3190   -3.1290 N   0  0  0  0  0  0  0  0  0  0  0  0
    9.1120    1.2900    2.2470 H   0  0  0  0  0  0  0  0  0  0  0  0
    8.2750    1.4010    1.5580 C   0  0  0  0  0  0  0  0  0  0  0  0
    9.3400    2.7320    0.2370 H   0  0  0  0  0  0  0  0  0  0  0  0
    8.4030    2.2110    0.4310 C   0  0  0  0  0  0  0  0  0  0  0  0
    4.8530   -0.9160    0.9190 H   0  0  0  0  0  0  0  0  0  0  0  0
    4.4680    0.2120    2.2420 H   0  0  0  0  0  0  0  0  0  0  0  0
    4.7200    0.1330    1.1840 C   0  0  0  0  0  0  0  0  0  0  0  0
    3.6590    0.6800    0.4100 O   0  0  0  0  0  0  0  0  0  0  0  0
    2.3920    0.5800    0.8850 C   0  0  0  0  0  0  0  0  0  0  0  0
    2.1170    0.0080    1.9440 O   0  0  0  0  0  0  0  0  0  0  0  0
  2 39  4  0  0  0  0
  4  2  4  0  0  0  0
  7  4  4  0  0  0  0
  9  6  1  0  0  0  0
  6 20  1  0  0  0  0
  6 21  1  0  0  0  0
 42  7  1  0  0  0  0
  7 17  4  0  0  0  0
 14  9  1  0  0  0  0
 13 11  1  0  0  0  0
 11 14  1  0  0  0  0
 44 13  1  0  0  0  0
 14 15  2  0  0  0  0
 17 37  4  0  0  0  0
 20 24  1  0  0  0  0
 21 35  1  0  0  0  0
 21 22  2  0  0  0  0
 24 32  1  0  0  0  0
 24 28  1  0  0  0  0
 37 39  4  0  0  0  0
 43 42  1  0  0  0  0
 43 44  1  0  0  0  0
 44 45  2  0  0  0  0
 42 40  1  0  0  0  0
 42 41  1  0  0  0  0
 39 38  1  0  0  0  0
 37 36  1  0  0  0  0
 35 33  1  0  0  0  0
 35 34  1  0  0  0  0
 32 29  1  0  0  0  0
 32 30  1  0  0  0  0
 32 31  1  0  0  0  0
 28 25  1  0  0  0  0
 28 26  1  0  0  0  0
 28 27  1  0  0  0  0
 24 23  1  0  0  0  0
 20 18  1  0  0  0  0
 20 19  1  0  0  0  0
 17 16  1  0  0  0  0
 13 12  1  0  0  0  0
 11 10  1  0  0  0  0
  9  8  1  0  0  0  0
  6  5  1  0  0  0  0
  4  3  1  0  0  0  0
  2  1  1  0  0  0  0
M  END
$$$$
