zala_min
  Spartan 04082118523D

 80 81  0  0  0  0  0  0  0  0999 V2000
    2.3990  -12.1860   -8.0740 H   0  0  0  0  0  0  0  0  0  0  0  0
    1.9760  -11.7030   -7.1930 C   0  0  0  0  0  0  0  0  0  0  0  0
    1.2010  -10.0260   -8.3020 H   0  0  0  0  0  0  0  0  0  0  0  0
    1.3040  -10.4890   -7.3200 C   0  0  0  0  0  0  0  0  0  0  0  0
    0.7620   -9.8630   -6.1990 C   0  0  0  0  0  0  0  0  0  0  0  0
    0.4650   -9.9850   -4.0680 H   0  0  0  0  0  0  0  0  0  0  0  0
    0.8910  -10.4660   -4.9480 C   0  0  0  0  0  0  0  0  0  0  0  0
    1.6610  -12.1460   -3.8370 H   0  0  0  0  0  0  0  0  0  0  0  0
    1.5630  -11.6800   -4.8180 C   0  0  0  0  0  0  0  0  0  0  0  0
    2.6350  -13.2470   -5.8400 H   0  0  0  0  0  0  0  0  0  0  0  0
    2.1070  -12.2990   -5.9410 C   0  0  0  0  0  0  0  0  0  0  0  0
    0.3360   -8.0620   -7.2550 H   0  0  0  0  0  0  0  0  0  0  0  0
   -1.0290   -8.7140   -6.3160 H   0  0  0  0  0  0  0  0  0  0  0  0
    0.0480   -8.5480   -6.3220 C   0  0  0  0  0  0  0  0  0  0  0  0
    0.4123   -7.7178   -5.2161 O   0  0  0  0  0  0  0  0  0  0  0  0
   -0.5159   -7.1879   -4.4246 C   0  0  0  0  0  0  0  0  0  0  0  0
   -1.7159   -7.2019   -4.7166 O   0  0  0  0  0  0  0  0  0  0  0  0
   -1.7619   -5.6729   -2.6696 H   0  0  0  0  0  0  0  0  0  0  0  0
   -0.8619   -6.0679   -2.1996 C   0  0  0  0  0  0  0  0  0  0  0  0
    1.0771   -6.6589   -3.0916 H   0  0  0  0  0  0  0  0  0  0  0  0
   -0.0019   -6.6498   -3.2456 N   0  0  0  0  0  0  0  0  0  0  0  0
   -0.1489   -4.9398   -1.5076 C   0  0  0  0  0  0  0  0  0  0  0  0
    1.0431   -4.6918   -1.7006 O   0  0  0  0  0  0  0  0  0  0  0  0
   -1.9129   -6.6948   -0.4246 H   0  0  0  0  0  0  0  0  0  0  0  0
   -1.8289   -7.9299   -1.7036 H   0  0  0  0  0  0  0  0  0  0  0  0
   -0.3899   -7.5659   -0.7226 H   0  0  0  0  0  0  0  0  0  0  0  0
   -1.2789   -7.1429   -1.1896 C   0  0  0  0  0  0  0  0  0  0  0  0
   -1.9399   -4.4818   -0.4406 H   0  0  0  0  0  0  0  0  0  0  0  0
   -0.9199   -4.1598   -0.6496 N   0  0  0  0  0  0  0  0  0  0  0  0
   -1.2309   -2.4998    0.6074 H   0  0  0  0  0  0  0  0  0  0  0  0
    0.4221   -3.1589    0.6274 H   0  0  0  0  0  0  0  0  0  0  0  0
   -0.4339   -2.9198   -0.0046 C   0  0  0  0  0  0  0  0  0  0  0  0
    0.1471   -0.9228   -0.5696 H   0  0  0  0  0  0  0  0  0  0  0  0
    0.9211   -2.2098   -1.5246 H   0  0  0  0  0  0  0  0  0  0  0  0
   -0.0089   -1.8848   -1.0566 C   0  0  0  0  0  0  0  0  0  0  0  0
   -1.7989   -2.5478   -1.9896 H   0  0  0  0  0  0  0  0  0  0  0  0
   -1.0879   -1.7349   -2.1346 C   0  0  0  0  0  0  0  0  0  0  0  0
   -0.5549   -1.9829   -3.5086 C   0  0  0  0  0  0  0  0  0  0  0  0
   -0.0589   -1.1359   -4.2126 O   0  0  0  0  0  0  0  0  0  0  0  0
   -0.5109   -3.1658   -4.1496 O   0  0  0  0  0  0  0  0  0  0  0  0
   -1.8359    0.4891   -3.7496 H   0  0  0  0  0  0  0  0  0  0  0  0
   -1.7689    0.7271   -2.6876 C   0  0  0  0  0  0  0  0  0  0  0  0
   -2.9919   -0.8859   -2.2156 H   0  0  0  0  0  0  0  0  0  0  0  0
   -1.9889   -0.5508   -1.9516 N   0  0  0  0  0  0  0  0  0  0  0  0
   -3.8299    1.2752   -2.4016 H   0  0  0  0  0  0  0  0  0  0  0  0
   -2.7069    1.9972   -1.2256 H   0  0  0  0  0  0  0  0  0  0  0  0
   -2.8509    1.7362   -2.2736 C   0  0  0  0  0  0  0  0  0  0  0  0
   -0.3979    1.3292   -2.5036 C   0  0  0  0  0  0  0  0  0  0  0  0
    0.1711    1.8502   -3.4676 O   0  0  0  0  0  0  0  0  0  0  0  0
   -1.7589    3.3651   -3.1376 H   0  0  0  0  0  0  0  0  0  0  0  0
   -2.7909    3.0172   -3.1166 C   0  0  0  0  0  0  0  0  0  0  0  0
   -3.1709    3.6702   -5.1396 H   0  0  0  0  0  0  0  0  0  0  0  0
   -2.5579    2.0042   -5.0086 H   0  0  0  0  0  0  0  0  0  0  0  0
   -4.2449    2.3682   -4.5746 H   0  0  0  0  0  0  0  0  0  0  0  0
   -3.2229    2.7452   -4.5646 C   0  0  0  0  0  0  0  0  0  0  0  0
   -3.6089    5.0111   -3.0946 H   0  0  0  0  0  0  0  0  0  0  0  0
   -4.6929    3.7652   -2.4336 H   0  0  0  0  0  0  0  0  0  0  0  0
   -3.2979    4.3262   -1.4816 H   0  0  0  0  0  0  0  0  0  0  0  0
   -3.6599    4.1082   -2.4866 C   0  0  0  0  0  0  0  0  0  0  0  0
    2.0771    1.5982   -2.0416 H   0  0  0  0  0  0  0  0  0  0  0  0
    1.5841    1.7332   -1.0786 C   0  0  0  0  0  0  0  0  0  0  0  0
   -0.3849    0.9352   -0.3856 H   0  0  0  0  0  0  0  0  0  0  0  0
    0.1851    1.2901   -1.2446 N   0  0  0  0  0  0  0  0  0  0  0  0
    2.3191    0.8731   -0.0846 C   0  0  0  0  0  0  0  0  0  0  0  0
    3.5331    0.6982   -0.0996 O   0  0  0  0  0  0  0  0  0  0  0  0
    2.7211    3.5562   -0.9486 H   0  0  0  0  0  0  0  0  0  0  0  0
    1.0191    3.7822   -1.4176 H   0  0  0  0  0  0  0  0  0  0  0  0
    1.6961    3.2352   -0.7616 C   0  0  0  0  0  0  0  0  0  0  0  0
    1.3451    3.5501    0.6654 C   0  0  0  0  0  0  0  0  0  0  0  0
    3.4001    3.8622    1.2314 H   0  0  0  0  0  0  0  0  0  0  0  0
    2.3641    3.8472    1.5694 C   0  0  0  0  0  0  0  0  0  0  0  0
   -0.7819    3.3091    0.3994 H   0  0  0  0  0  0  0  0  0  0  0  0
    0.0211    3.5351    1.1014 C   0  0  0  0  0  0  0  0  0  0  0  0
    2.8671    4.3591    3.6034 H   0  0  0  0  0  0  0  0  0  0  0  0
    2.0661    4.1262    2.9014 C   0  0  0  0  0  0  0  0  0  0  0  0
   -1.3119    3.7942    2.7714 H   0  0  0  0  0  0  0  0  0  0  0  0
   -0.2759    3.8102    2.4334 C   0  0  0  0  0  0  0  0  0  0  0  0
    0.5051    4.3201    4.3764 H   0  0  0  0  0  0  0  0  0  0  0  0
    0.7431    4.1062    3.3354 C   0  0  0  0  0  0  0  0  0  0  0  0
    1.5781    0.2862    0.8804 O   0  0  0  0  0  0  0  0  0  0  0  0
  2 11  4  0  0  0  0
  2  4  4  0  0  0  0
  4  5  4  0  0  0  0
  5 14  1  0  0  0  0
  5  7  4  0  0  0  0
  7  9  4  0  0  0  0
  9 11  4  0  0  0  0
 14 15  1  0  0  0  0
 15 16  1  0  0  0  0
 16 17  2  0  0  0  0
 16 21  1  0  0  0  0
 21 19  1  0  0  0  0
 19 22  1  0  0  0  0
 19 27  1  0  0  0  0
 22 23  2  0  0  0  0
 22 29  1  0  0  0  0
 29 32  1  0  0  0  0
 32 35  1  0  0  0  0
 35 37  1  0  0  0  0
 37 38  1  0  0  0  0
 37 44  1  0  0  0  0
 38 39  4  0  0  0  0
 38 40  4  0  0  0  0
 44 42  1  0  0  0  0
 42 47  1  0  0  0  0
 42 48  1  0  0  0  0
 47 51  1  0  0  0  0
 48 49  2  0  0  0  0
 48 63  1  0  0  0  0
 51 55  1  0  0  0  0
 51 59  1  0  0  0  0
 63 61  1  0  0  0  0
 61 64  1  0  0  0  0
 61 68  1  0  0  0  0
 64 65  4  0  0  0  0
 64 80  4  0  0  0  0
 68 69  1  0  0  0  0
 69 71  4  0  0  0  0
 69 73  4  0  0  0  0
 71 75  4  0  0  0  0
 73 77  4  0  0  0  0
 75 79  4  0  0  0  0
 77 79  4  0  0  0  0
 79 78  1  0  0  0  0
 77 76  1  0  0  0  0
 75 74  1  0  0  0  0
 73 72  1  0  0  0  0
 71 70  1  0  0  0  0
 68 66  1  0  0  0  0
 68 67  1  0  0  0  0
 63 62  1  0  0  0  0
 61 60  1  0  0  0  0
 59 56  1  0  0  0  0
 59 57  1  0  0  0  0
 59 58  1  0  0  0  0
 55 52  1  0  0  0  0
 55 53  1  0  0  0  0
 55 54  1  0  0  0  0
 51 50  1  0  0  0  0
 47 45  1  0  0  0  0
 47 46  1  0  0  0  0
 44 43  1  0  0  0  0
 42 41  1  0  0  0  0
 37 36  1  0  0  0  0
 35 33  1  0  0  0  0
 35 34  1  0  0  0  0
 32 30  1  0  0  0  0
 32 31  1  0  0  0  0
 29 28  1  0  0  0  0
 27 24  1  0  0  0  0
 27 25  1  0  0  0  0
 27 26  1  0  0  0  0
 21 20  1  0  0  0  0
 19 18  1  0  0  0  0
 14 12  1  0  0  0  0
 14 13  1  0  0  0  0
 11 10  1  0  0  0  0
  9  8  1  0  0  0  0
  7  6  1  0  0  0  0
  4  3  1  0  0  0  0
  2  1  1  0  0  0  0
M  END
$$$$
