ZAPOLA_min
  Spartan 04082118523D

 57 57  0  0  0  0  0  0  0  0999 V2000
   -1.2150   -5.2850   -3.6800 C   0  0  0  0  0  0  0  0  0  0  0  0
   -2.4440   -5.3180   -3.4970 O   0  0  0  0  0  0  0  0  0  0  0  0
   -0.5985   -6.2431   -4.3662 O   0  0  0  0  0  0  0  0  0  0  0  0
   -2.0664   -7.6798   -4.1466 H   0  0  0  0  0  0  0  0  0  0  0  0
   -1.9464   -6.9478   -5.7646 H   0  0  0  0  0  0  0  0  0  0  0  0
   -1.3794   -7.3118   -4.9076 C   0  0  0  0  0  0  0  0  0  0  0  0
   -0.4794   -8.4258   -5.3456 C   0  0  0  0  0  0  0  0  0  0  0  0
   -0.0684   -9.0808   -3.3336 H   0  0  0  0  0  0  0  0  0  0  0  0
    0.1226   -9.2478   -4.3936 C   0  0  0  0  0  0  0  0  0  0  0  0
   -0.6944   -7.9938   -7.4466 H   0  0  0  0  0  0  0  0  0  0  0  0
   -0.2284   -8.6368   -6.6996 C   0  0  0  0  0  0  0  0  0  0  0  0
    1.4336  -10.9238   -4.0466 H   0  0  0  0  0  0  0  0  0  0  0  0
    0.9666  -10.2818   -4.7936 C   0  0  0  0  0  0  0  0  0  0  0  0
    0.8096   -9.8348   -8.1596 H   0  0  0  0  0  0  0  0  0  0  0  0
    0.6166   -9.6698   -7.0996 C   0  0  0  0  0  0  0  0  0  0  0  0
    1.8736  -11.3018   -6.4626 H   0  0  0  0  0  0  0  0  0  0  0  0
    1.2136  -10.4938   -6.1476 C   0  0  0  0  0  0  0  0  0  0  0  0
    0.7230   -4.3890   -3.4910 H   0  0  0  0  0  0  0  0  0  0  0  0
   -0.3320   -4.2910   -3.2370 N   0  0  0  0  0  0  0  0  0  0  0  0
   -1.6690   -3.3750   -1.9130 H   0  0  0  0  0  0  0  0  0  0  0  0
   -0.7520   -3.1190   -2.4440 C   0  0  0  0  0  0  0  0  0  0  0  0
   -1.0970   -1.7150   -3.5410 P   0  0  0  0  0  0  0  0  0  0  0  0
    0.1070   -1.1750   -4.1790 O   0  0  0  0  0  0  0  0  0  0  0  0
   -1.9100   -2.3000   -4.8150 O   0  0  0  0  0  0  0  0  0  0  0  0
   -0.0430   -1.8870   -0.8240 H   0  0  0  0  0  0  0  0  0  0  0  0
    0.4400   -3.5970   -0.7130 H   0  0  0  0  0  0  0  0  0  0  0  0
    1.2410   -2.5200   -1.8820 H   0  0  0  0  0  0  0  0  0  0  0  0
    0.2970   -2.7540   -1.3900 C   0  0  0  0  0  0  0  0  0  0  0  0
   -1.9210   -0.5560   -2.6870 O   0  0  0  0  0  0  0  0  0  0  0  0
   -1.7370    0.8500   -4.1640 H   0  0  0  0  0  0  0  0  0  0  0  0
   -1.7790    0.8140   -3.0760 C   0  0  0  0  0  0  0  0  0  0  0  0
   -0.5110    1.3910   -2.5100 C   0  0  0  0  0  0  0  0  0  0  0  0
    0.3320    2.0040   -3.1720 O   0  0  0  0  0  0  0  0  0  0  0  0
   -3.8960    1.2000   -2.9820 H   0  0  0  0  0  0  0  0  0  0  0  0
   -3.0010    1.6460   -1.5090 H   0  0  0  0  0  0  0  0  0  0  0  0
   -2.9770    1.6440   -2.5990 C   0  0  0  0  0  0  0  0  0  0  0  0
   -1.8570    3.4440   -2.8950 H   0  0  0  0  0  0  0  0  0  0  0  0
   -2.8670    3.0910   -3.1040 C   0  0  0  0  0  0  0  0  0  0  0  0
   -3.0030    4.1980   -4.9510 H   0  0  0  0  0  0  0  0  0  0  0  0
   -2.3340    2.5580   -5.1260 H   0  0  0  0  0  0  0  0  0  0  0  0
   -4.0790    2.7840   -4.8630 H   0  0  0  0  0  0  0  0  0  0  0  0
   -3.0870    3.1630   -4.6210 C   0  0  0  0  0  0  0  0  0  0  0  0
   -3.7550    5.0190   -2.7390 H   0  0  0  0  0  0  0  0  0  0  0  0
   -4.8680    3.6460   -2.5320 H   0  0  0  0  0  0  0  0  0  0  0  0
   -3.6310    3.9820   -1.2980 H   0  0  0  0  0  0  0  0  0  0  0  0
   -3.8510    4.0000   -2.3650 C   0  0  0  0  0  0  0  0  0  0  0  0
   -1.0970    0.6910   -0.5620 H   0  0  0  0  0  0  0  0  0  0  0  0
   -0.3480    1.2360   -1.1370 N   0  0  0  0  0  0  0  0  0  0  0  0
    1.3590    2.4350   -1.1650 H   0  0  0  0  0  0  0  0  0  0  0  0
    0.8290    1.8020   -0.4530 C   0  0  0  0  0  0  0  0  0  0  0  0
    1.7780    0.7220   -0.0160 C   0  0  0  0  0  0  0  0  0  0  0  0
    1.4910   -0.1870    0.7560 O   0  0  0  0  0  0  0  0  0  0  0  0
    1.2810    3.0790    1.2240 H   0  0  0  0  0  0  0  0  0  0  0  0
   -0.2300    3.4880    0.3750 H   0  0  0  0  0  0  0  0  0  0  0  0
   -0.1650    2.0640    1.4420 H   0  0  0  0  0  0  0  0  0  0  0  0
    0.3980    2.6710    0.7320 C   0  0  0  0  0  0  0  0  0  0  0  0
    3.0320    0.7930   -0.5100 O   0  0  0  0  0  0  0  0  0  0  0  0
  1  2  2  0  0  0  0
  1  3  1  0  0  0  0
  1 19  1  0  0  0  0
  3  6  1  0  0  0  0
  6  7  1  0  0  0  0
  7  9  4  0  0  0  0
  7 11  4  0  0  0  0
  9 13  4  0  0  0  0
 11 15  4  0  0  0  0
 13 17  4  0  0  0  0
 15 17  4  0  0  0  0
 19 21  1  0  0  0  0
 21 22  1  0  0  0  0
 21 28  1  0  0  0  0
 22 23  4  0  0  0  0
 22 24  4  0  0  0  0
 22 29  1  0  0  0  0
 29 31  1  0  0  0  0
 31 32  1  0  0  0  0
 31 36  1  0  0  0  0
 32 33  2  0  0  0  0
 32 48  1  0  0  0  0
 36 38  1  0  0  0  0
 38 42  1  0  0  0  0
 38 46  1  0  0  0  0
 48 50  1  0  0  0  0
 50 51  1  0  0  0  0
 50 56  1  0  0  0  0
 51 52  4  0  0  0  0
 51 57  4  0  0  0  0
 56 53  1  0  0  0  0
 56 54  1  0  0  0  0
 56 55  1  0  0  0  0
 50 49  1  0  0  0  0
 48 47  1  0  0  0  0
 46 43  1  0  0  0  0
 46 44  1  0  0  0  0
 46 45  1  0  0  0  0
 42 39  1  0  0  0  0
 42 40  1  0  0  0  0
 42 41  1  0  0  0  0
 38 37  1  0  0  0  0
 36 34  1  0  0  0  0
 36 35  1  0  0  0  0
 31 30  1  0  0  0  0
 28 25  1  0  0  0  0
 28 26  1  0  0  0  0
 28 27  1  0  0  0  0
 21 20  1  0  0  0  0
 19 18  1  0  0  0  0
 17 16  1  0  0  0  0
 15 14  1  0  0  0  0
 13 12  1  0  0  0  0
 11 10  1  0  0  0  0
  9  8  1  0  0  0  0
  6  4  1  0  0  0  0
  6  5  1  0  0  0  0
M  END
$$$$
