zfpola_min
  Spartan 04082118523D

 67 68  0  0  0  0  0  0  0  0999 V2000
   -1.1930   -5.2490   -3.6300 C   0  0  0  0  0  0  0  0  0  0  0  0
   -2.4230   -5.2810   -3.4610 O   0  0  0  0  0  0  0  0  0  0  0  0
   -0.5705   -6.2162   -4.2977 O   0  0  0  0  0  0  0  0  0  0  0  0
   -2.0315   -7.6571   -4.0602 H   0  0  0  0  0  0  0  0  0  0  0  0
   -1.9425   -6.9131   -5.6752 H   0  0  0  0  0  0  0  0  0  0  0  0
   -1.3585   -7.2831   -4.8322 C   0  0  0  0  0  0  0  0  0  0  0  0
   -0.4675   -8.3921   -5.2942 C   0  0  0  0  0  0  0  0  0  0  0  0
   -0.0265   -9.0761   -3.2982 H   0  0  0  0  0  0  0  0  0  0  0  0
    0.1465   -9.2291   -4.3632 C   0  0  0  0  0  0  0  0  0  0  0  0
   -0.7145   -7.9301   -7.3852 H   0  0  0  0  0  0  0  0  0  0  0  0
   -0.2395   -8.5861   -6.6552 C   0  0  0  0  0  0  0  0  0  0  0  0
    1.4555  -10.9161   -4.0612 H   0  0  0  0  0  0  0  0  0  0  0  0
    0.9795  -10.2611   -4.7912 C   0  0  0  0  0  0  0  0  0  0  0  0
    0.7705   -9.7661   -8.1482 H   0  0  0  0  0  0  0  0  0  0  0  0
    0.5945   -9.6161   -7.0832 C   0  0  0  0  0  0  0  0  0  0  0  0
    1.8545  -11.2611   -6.4892 H   0  0  0  0  0  0  0  0  0  0  0  0
    1.2035  -10.4541   -6.1522 C   0  0  0  0  0  0  0  0  0  0  0  0
    0.7400   -4.3380   -3.4150 H   0  0  0  0  0  0  0  0  0  0  0  0
   -0.3230   -4.2440   -3.1900 N   0  0  0  0  0  0  0  0  0  0  0  0
   -1.7150   -3.3360   -1.9420 H   0  0  0  0  0  0  0  0  0  0  0  0
   -0.7820   -3.0630   -2.4350 C   0  0  0  0  0  0  0  0  0  0  0  0
   -1.1040   -1.6810   -3.5550 P   0  0  0  0  0  0  0  0  0  0  0  0
    0.1090   -1.1560   -4.1860 O   0  0  0  0  0  0  0  0  0  0  0  0
   -1.9160   -2.2840   -4.8210 O   0  0  0  0  0  0  0  0  0  0  0  0
    1.2120   -2.6950   -1.7100 H   0  0  0  0  0  0  0  0  0  0  0  0
   -0.0360   -1.6510   -0.9900 H   0  0  0  0  0  0  0  0  0  0  0  0
    0.1930   -2.6630   -1.3260 C   0  0  0  0  0  0  0  0  0  0  0  0
    0.0640   -3.6110   -0.1740 C   0  0  0  0  0  0  0  0  0  0  0  0
   -0.4140   -2.0510    1.2350 H   0  0  0  0  0  0  0  0  0  0  0  0
   -0.2680   -3.1210    1.0880 C   0  0  0  0  0  0  0  0  0  0  0  0
    0.5120   -5.3620   -1.3490 H   0  0  0  0  0  0  0  0  0  0  0  0
    0.2520   -4.9780   -0.3630 C   0  0  0  0  0  0  0  0  0  0  0  0
   -0.6710   -3.6130    3.1490 H   0  0  0  0  0  0  0  0  0  0  0  0
   -0.4120   -3.9970    2.1620 C   0  0  0  0  0  0  0  0  0  0  0  0
    0.2560   -6.9260    0.5630 H   0  0  0  0  0  0  0  0  0  0  0  0
    0.1080   -5.8560    0.7100 C   0  0  0  0  0  0  0  0  0  0  0  0
   -0.3380   -6.0520    2.8100 H   0  0  0  0  0  0  0  0  0  0  0  0
   -0.2250   -5.3650    1.9720 C   0  0  0  0  0  0  0  0  0  0  0  0
   -1.9270   -0.5140   -2.7110 O   0  0  0  0  0  0  0  0  0  0  0  0
   -1.7220    0.9090   -4.1680 H   0  0  0  0  0  0  0  0  0  0  0  0
   -1.7690    0.8550   -3.0800 C   0  0  0  0  0  0  0  0  0  0  0  0
   -0.4970    1.4080   -2.5000 C   0  0  0  0  0  0  0  0  0  0  0  0
    0.3480    2.0220   -3.1580 O   0  0  0  0  0  0  0  0  0  0  0  0
   -3.8820    1.2620   -2.9850 H   0  0  0  0  0  0  0  0  0  0  0  0
   -2.9870    1.6740   -1.5030 H   0  0  0  0  0  0  0  0  0  0  0  0
   -2.9600    1.6900   -2.5920 C   0  0  0  0  0  0  0  0  0  0  0  0
   -1.8200    3.4820   -2.8520 H   0  0  0  0  0  0  0  0  0  0  0  0
   -2.8320    3.1420   -3.0740 C   0  0  0  0  0  0  0  0  0  0  0  0
   -2.9430    4.2770   -4.9060 H   0  0  0  0  0  0  0  0  0  0  0  0
   -2.2890    2.6330   -5.1000 H   0  0  0  0  0  0  0  0  0  0  0  0
   -4.0340    2.8720   -4.8460 H   0  0  0  0  0  0  0  0  0  0  0  0
   -3.0400    3.2380   -4.5910 C   0  0  0  0  0  0  0  0  0  0  0  0
   -3.7040    5.0730   -2.6870 H   0  0  0  0  0  0  0  0  0  0  0  0
   -4.8320    3.7080   -2.5100 H   0  0  0  0  0  0  0  0  0  0  0  0
   -3.6020    4.0140   -1.2610 H   0  0  0  0  0  0  0  0  0  0  0  0
   -3.8130    4.0500   -2.3300 C   0  0  0  0  0  0  0  0  0  0  0  0
   -1.0780    0.6780   -0.5620 H   0  0  0  0  0  0  0  0  0  0  0  0
   -0.3310    1.2350   -1.1290 N   0  0  0  0  0  0  0  0  0  0  0  0
    1.3560    2.4560   -1.1320 H   0  0  0  0  0  0  0  0  0  0  0  0
    0.8440    1.7950   -0.4340 C   0  0  0  0  0  0  0  0  0  0  0  0
    1.8250    0.7230   -0.0420 C   0  0  0  0  0  0  0  0  0  0  0  0
    1.4730   -0.1880    0.7710 O   0  0  0  0  0  0  0  0  0  0  0  0
    1.2920    3.0270    1.2770 H   0  0  0  0  0  0  0  0  0  0  0  0
   -0.2280    3.4430    0.4510 H   0  0  0  0  0  0  0  0  0  0  0  0
   -0.1400    1.9900    1.4750 H   0  0  0  0  0  0  0  0  0  0  0  0
    0.4110    2.6240    0.7800 C   0  0  0  0  0  0  0  0  0  0  0  0
    2.9940    0.7950   -0.5270 O   0  0  0  0  0  0  0  0  0  0  0  0
  1  2  2  0  0  0  0
  1  3  1  0  0  0  0
  1 19  1  0  0  0  0
  3  6  1  0  0  0  0
  6  7  1  0  0  0  0
  7  9  4  0  0  0  0
  7 11  4  0  0  0  0
  9 13  4  0  0  0  0
 11 15  4  0  0  0  0
 13 17  4  0  0  0  0
 15 17  4  0  0  0  0
 19 21  1  0  0  0  0
 21 22  1  0  0  0  0
 21 27  1  0  0  0  0
 22 23  4  0  0  0  0
 22 24  4  0  0  0  0
 22 39  1  0  0  0  0
 27 28  1  0  0  0  0
 28 30  4  0  0  0  0
 28 32  4  0  0  0  0
 30 34  4  0  0  0  0
 32 36  4  0  0  0  0
 34 38  4  0  0  0  0
 36 38  4  0  0  0  0
 39 41  1  0  0  0  0
 41 42  1  0  0  0  0
 41 46  1  0  0  0  0
 42 43  2  0  0  0  0
 42 58  1  0  0  0  0
 46 48  1  0  0  0  0
 48 52  1  0  0  0  0
 48 56  1  0  0  0  0
 58 60  1  0  0  0  0
 60 61  1  0  0  0  0
 60 66  1  0  0  0  0
 61 62  4  0  0  0  0
 61 67  4  0  0  0  0
 66 63  1  0  0  0  0
 66 64  1  0  0  0  0
 66 65  1  0  0  0  0
 60 59  1  0  0  0  0
 58 57  1  0  0  0  0
 56 53  1  0  0  0  0
 56 54  1  0  0  0  0
 56 55  1  0  0  0  0
 52 49  1  0  0  0  0
 52 50  1  0  0  0  0
 52 51  1  0  0  0  0
 48 47  1  0  0  0  0
 46 44  1  0  0  0  0
 46 45  1  0  0  0  0
 41 40  1  0  0  0  0
 38 37  1  0  0  0  0
 36 35  1  0  0  0  0
 34 33  1  0  0  0  0
 32 31  1  0  0  0  0
 30 29  1  0  0  0  0
 27 25  1  0  0  0  0
 27 26  1  0  0  0  0
 21 20  1  0  0  0  0
 19 18  1  0  0  0  0
 17 16  1  0  0  0  0
 15 14  1  0  0  0  0
 13 12  1  0  0  0  0
 11 10  1  0  0  0  0
  9  8  1  0  0  0  0
  6  4  1  0  0  0  0
  6  5  1  0  0  0  0
M  END
$$$$
