zgg_d_lnhoh_min
  Spartan 04082118523D

 54 54  0  0  0  0  0  0  0  0999 V2000
    3.7965    1.1865   -0.1718 H   0  0  0  0  0  0  0  0  0  0  0  0
    3.8565   -0.5855   -0.3318 H   0  0  0  0  0  0  0  0  0  0  0  0
    3.6595    0.2395    0.3522 C   0  0  0  0  0  0  0  0  0  0  0  0
    4.3335   -0.2825    2.4222 H   0  0  0  0  0  0  0  0  0  0  0  0
    4.6155    0.1705    1.4712 N   0  0  0  0  0  0  0  0  0  0  0  0
    2.2455    0.1495    0.8252 C   0  0  0  0  0  0  0  0  0  0  0  0
    1.8885   -0.6795    1.6582 O   0  0  0  0  0  0  0  0  0  0  0  0
   -0.7115    1.5375   -3.5818 H   0  0  0  0  0  0  0  0  0  0  0  0
   -1.1845    0.7935   -2.9418 C   0  0  0  0  0  0  0  0  0  0  0  0
   -2.5485   -3.1795   -4.8978 H   0  0  0  0  0  0  0  0  0  0  0  0
   -1.6865   -2.5485   -4.6798 O   0  0  0  0  0  0  0  0  0  0  0  0
    1.4385    2.9745   -0.4618 H   0  0  0  0  0  0  0  0  0  0  0  0
    2.5945    1.8205   -1.1678 H   0  0  0  0  0  0  0  0  0  0  0  0
    1.5735    1.9505   -0.8098 C   0  0  0  0  0  0  0  0  0  0  0  0
    0.2965    0.9895    0.6982 H   0  0  0  0  0  0  0  0  0  0  0  0
    1.3035    1.0115    0.2832 N   0  0  0  0  0  0  0  0  0  0  0  0
    0.6045    1.6515   -1.9098 C   0  0  0  0  0  0  0  0  0  0  0  0
    0.7115    2.0335   -3.0718 O   0  0  0  0  0  0  0  0  0  0  0  0
    8.3326    5.6604   -2.8274 H   0  0  0  0  0  0  0  0  0  0  0  0
    7.5486    5.0234   -2.4174 C   0  0  0  0  0  0  0  0  0  0  0  0
   -0.8515    0.4955   -0.6918 H   0  0  0  0  0  0  0  0  0  0  0  0
   -0.5255    0.9065   -1.6478 N   0  0  0  0  0  0  0  0  0  0  0  0
   -3.1585    0.9045   -3.7848 H   0  0  0  0  0  0  0  0  0  0  0  0
   -3.1235    0.7225   -2.0148 H   0  0  0  0  0  0  0  0  0  0  0  0
   -2.6515    1.2085   -2.8698 C   0  0  0  0  0  0  0  0  0  0  0  0
   -0.8755   -0.4485   -3.7318 C   0  0  0  0  0  0  0  0  0  0  0  0
    0.1375   -0.7965   -4.3048 O   0  0  0  0  0  0  0  0  0  0  0  0
   -2.0425    3.0435   -1.9488 H   0  0  0  0  0  0  0  0  0  0  0  0
   -2.7555    2.7285   -2.7108 C   0  0  0  0  0  0  0  0  0  0  0  0
   -2.4875    4.5145   -3.8958 H   0  0  0  0  0  0  0  0  0  0  0  0
   -1.3885    3.1805   -4.3208 H   0  0  0  0  0  0  0  0  0  0  0  0
   -3.0995    3.1145   -4.8078 H   0  0  0  0  0  0  0  0  0  0  0  0
   -2.4075    3.4355   -4.0298 C   0  0  0  0  0  0  0  0  0  0  0  0
   -4.2235    4.1985   -2.1618 H   0  0  0  0  0  0  0  0  0  0  0  0
   -4.8815    2.7845   -3.0188 H   0  0  0  0  0  0  0  0  0  0  0  0
   -4.3875    2.6405   -1.3158 H   0  0  0  0  0  0  0  0  0  0  0  0
   -4.1625    3.1155   -2.2708 C   0  0  0  0  0  0  0  0  0  0  0  0
   -2.8845   -1.0455   -3.8068 H   0  0  0  0  0  0  0  0  0  0  0  0
   -1.8625   -1.3295   -4.0588 N   0  0  0  0  0  0  0  0  0  0  0  0
    8.9406    3.6834   -1.4624 H   0  0  0  0  0  0  0  0  0  0  0  0
    7.8916    3.9134   -1.6474 C   0  0  0  0  0  0  0  0  0  0  0  0
    6.8986    3.1014   -1.1184 C   0  0  0  0  0  0  0  0  0  0  0  0
    4.7746    2.7724   -0.9564 H   0  0  0  0  0  0  0  0  0  0  0  0
    5.5576    3.4074   -1.3694 C   0  0  0  0  0  0  0  0  0  0  0  0
    4.1626    4.7414   -2.3324 H   0  0  0  0  0  0  0  0  0  0  0  0
    5.2116    4.5134   -2.1414 C   0  0  0  0  0  0  0  0  0  0  0  0
    5.9506    6.1954   -3.2684 H   0  0  0  0  0  0  0  0  0  0  0  0
    6.2116    5.3254   -2.6654 C   0  0  0  0  0  0  0  0  0  0  0  0
    7.9456    1.2744   -0.8294 H   0  0  0  0  0  0  0  0  0  0  0  0
    7.7426    2.2564    0.6406 H   0  0  0  0  0  0  0  0  0  0  0  0
    7.2606    1.9154   -0.2754 C   0  0  0  0  0  0  0  0  0  0  0  0
    6.0830    1.1750    0.0560 O   0  0  0  0  0  0  0  0  0  0  0  0
    5.8875    0.6985    1.2822 C   0  0  0  0  0  0  0  0  0  0  0  0
    6.7585    0.7345    2.1602 O   0  0  0  0  0  0  0  0  0  0  0  0
  5  3  1  0  0  0  0
  3  6  1  0  0  0  0
 53  5  1  0  0  0  0
  6  7  2  0  0  0  0
  6 16  1  0  0  0  0
 22  9  1  0  0  0  0
  9 25  1  0  0  0  0
  9 26  1  0  0  0  0
 39 11  1  0  0  0  0
 16 14  1  0  0  0  0
 14 17  1  0  0  0  0
 17 18  2  0  0  0  0
 17 22  1  0  0  0  0
 41 20  4  0  0  0  0
 20 48  4  0  0  0  0
 25 29  1  0  0  0  0
 26 27  2  0  0  0  0
 26 39  1  0  0  0  0
 29 33  1  0  0  0  0
 29 37  1  0  0  0  0
 42 41  4  0  0  0  0
 42 44  4  0  0  0  0
 51 42  1  0  0  0  0
 44 46  4  0  0  0  0
 46 48  4  0  0  0  0
 52 51  1  0  0  0  0
 52 53  1  0  0  0  0
 53 54  2  0  0  0  0
 51 49  1  0  0  0  0
 51 50  1  0  0  0  0
 48 47  1  0  0  0  0
 46 45  1  0  0  0  0
 44 43  1  0  0  0  0
 41 40  1  0  0  0  0
 39 38  1  0  0  0  0
 37 34  1  0  0  0  0
 37 35  1  0  0  0  0
 37 36  1  0  0  0  0
 33 30  1  0  0  0  0
 33 31  1  0  0  0  0
 33 32  1  0  0  0  0
 29 28  1  0  0  0  0
 25 23  1  0  0  0  0
 25 24  1  0  0  0  0
 22 21  1  0  0  0  0
 20 19  1  0  0  0  0
 16 15  1  0  0  0  0
 14 12  1  0  0  0  0
 14 13  1  0  0  0  0
 11 10  1  0  0  0  0
  9  8  1  0  0  0  0
  5  4  1  0  0  0  0
  3  1  1  0  0  0  0
  3  2  1  0  0  0  0
M  END
$$$$
