ZGGLNHOH_min
  Spartan 04082118523D

 54 54  0  0  0  0  0  0  0  0999 V2000
    4.0181    1.0586   -0.3552 H   0  0  0  0  0  0  0  0  0  0  0  0
    3.6291   -0.6724   -0.2142 H   0  0  0  0  0  0  0  0  0  0  0  0
    3.6971    0.2716    0.3268 C   0  0  0  0  0  0  0  0  0  0  0  0
    4.4561   -0.4344    2.3068 H   0  0  0  0  0  0  0  0  0  0  0  0
    4.6901    0.1356    1.4088 N   0  0  0  0  0  0  0  0  0  0  0  0
    2.3511    0.6186    0.8768 C   0  0  0  0  0  0  0  0  0  0  0  0
    1.9131    0.0936    1.8968 O   0  0  0  0  0  0  0  0  0  0  0  0
   -1.4869   -0.7714   -1.4462 H   0  0  0  0  0  0  0  0  0  0  0  0
   -1.1909   -0.0334   -2.1912 C   0  0  0  0  0  0  0  0  0  0  0  0
   -2.4419   -3.3964   -4.9232 H   0  0  0  0  0  0  0  0  0  0  0  0
   -1.7259   -2.6164   -4.6652 O   0  0  0  0  0  0  0  0  0  0  0  0
    1.9011    3.0956   -1.1912 H   0  0  0  0  0  0  0  0  0  0  0  0
    2.8551    1.6206   -1.4782 H   0  0  0  0  0  0  0  0  0  0  0  0
    1.8821    2.0066   -1.1712 C   0  0  0  0  0  0  0  0  0  0  0  0
    0.6741    1.9266    0.6788 H   0  0  0  0  0  0  0  0  0  0  0  0
    1.5661    1.5366    0.1898 N   0  0  0  0  0  0  0  0  0  0  0  0
    0.8171    1.4986   -2.1012 C   0  0  0  0  0  0  0  0  0  0  0  0
    0.7081    1.8316   -3.2792 O   0  0  0  0  0  0  0  0  0  0  0  0
    4.2936    4.7971   -2.5562 H   0  0  0  0  0  0  0  0  0  0  0  0
    5.3126    4.6491   -2.1982 C   0  0  0  0  0  0  0  0  0  0  0  0
    0.1351    0.3126   -0.4802 H   0  0  0  0  0  0  0  0  0  0  0  0
   -0.0479    0.5876   -1.5192 N   0  0  0  0  0  0  0  0  0  0  0  0
   -3.2459    0.2386   -2.7602 H   0  0  0  0  0  0  0  0  0  0  0  0
   -2.7569    1.1446   -1.3082 H   0  0  0  0  0  0  0  0  0  0  0  0
   -2.4579    0.8446   -2.3132 C   0  0  0  0  0  0  0  0  0  0  0  0
   -0.8979   -0.9344   -3.3512 C   0  0  0  0  0  0  0  0  0  0  0  0
   -0.0089   -0.9714   -4.2022 O   0  0  0  0  0  0  0  0  0  0  0  0
   -1.3369    2.5656   -2.9152 H   0  0  0  0  0  0  0  0  0  0  0  0
   -2.2999    2.1166   -3.1602 C   0  0  0  0  0  0  0  0  0  0  0  0
   -2.1859    2.7216   -5.2272 H   0  0  0  0  0  0  0  0  0  0  0  0
   -1.4729    1.1266   -4.8882 H   0  0  0  0  0  0  0  0  0  0  0  0
   -3.2409    1.3196   -4.9292 H   0  0  0  0  0  0  0  0  0  0  0  0
   -2.2999    1.7986   -4.6592 C   0  0  0  0  0  0  0  0  0  0  0  0
   -3.3029    4.0046   -3.4372 H   0  0  0  0  0  0  0  0  0  0  0  0
   -4.3859    2.6456   -3.0512 H   0  0  0  0  0  0  0  0  0  0  0  0
   -3.3769    3.3696   -1.7762 H   0  0  0  0  0  0  0  0  0  0  0  0
   -3.4229    3.1056   -2.8322 C   0  0  0  0  0  0  0  0  0  0  0  0
   -2.7269   -2.0064   -2.8102 H   0  0  0  0  0  0  0  0  0  0  0  0
   -1.9009   -1.8704   -3.5082 N   0  0  0  0  0  0  0  0  0  0  0  0
    4.8626    2.7931   -1.2022 H   0  0  0  0  0  0  0  0  0  0  0  0
    5.6346    3.5241   -1.4402 C   0  0  0  0  0  0  0  0  0  0  0  0
    6.9386    3.3291   -0.9831 C   0  0  0  0  0  0  0  0  0  0  0  0
    8.9456    4.1171   -0.9312 H   0  0  0  0  0  0  0  0  0  0  0  0
    7.9256    4.2661   -1.2841 C   0  0  0  0  0  0  0  0  0  0  0  0
    8.3756    6.1271   -2.2681 H   0  0  0  0  0  0  0  0  0  0  0  0
    7.6046    5.3911   -2.0372 C   0  0  0  0  0  0  0  0  0  0  0  0
    6.0586    6.4651   -3.0882 H   0  0  0  0  0  0  0  0  0  0  0  0
    6.3026    5.5831   -2.4962 C   0  0  0  0  0  0  0  0  0  0  0  0
    7.9856    1.4951   -0.7261 H   0  0  0  0  0  0  0  0  0  0  0  0
    7.7326    2.4241    0.7709 H   0  0  0  0  0  0  0  0  0  0  0  0
    7.2816    2.1141   -0.1712 C   0  0  0  0  0  0  0  0  0  0  0  0
    6.0940    1.3630    0.0940 O   0  0  0  0  0  0  0  0  0  0  0  0
    5.9311    0.7496    1.2628 C   0  0  0  0  0  0  0  0  0  0  0  0
    6.8121    0.7336    2.1298 O   0  0  0  0  0  0  0  0  0  0  0  0
  5  3  1  0  0  0  0
  3  6  1  0  0  0  0
 53  5  1  0  0  0  0
  6  7  2  0  0  0  0
  6 16  1  0  0  0  0
 22  9  1  0  0  0  0
  9 25  1  0  0  0  0
  9 26  1  0  0  0  0
 39 11  1  0  0  0  0
 16 14  1  0  0  0  0
 14 17  1  0  0  0  0
 17 18  2  0  0  0  0
 17 22  1  0  0  0  0
 41 20  4  0  0  0  0
 20 48  4  0  0  0  0
 25 29  1  0  0  0  0
 26 27  2  0  0  0  0
 26 39  1  0  0  0  0
 29 33  1  0  0  0  0
 29 37  1  0  0  0  0
 42 41  4  0  0  0  0
 42 44  4  0  0  0  0
 51 42  1  0  0  0  0
 44 46  4  0  0  0  0
 46 48  4  0  0  0  0
 52 51  1  0  0  0  0
 52 53  1  0  0  0  0
 53 54  2  0  0  0  0
 51 49  1  0  0  0  0
 51 50  1  0  0  0  0
 48 47  1  0  0  0  0
 46 45  1  0  0  0  0
 44 43  1  0  0  0  0
 41 40  1  0  0  0  0
 39 38  1  0  0  0  0
 37 34  1  0  0  0  0
 37 35  1  0  0  0  0
 37 36  1  0  0  0  0
 33 30  1  0  0  0  0
 33 31  1  0  0  0  0
 33 32  1  0  0  0  0
 29 28  1  0  0  0  0
 25 23  1  0  0  0  0
 25 24  1  0  0  0  0
 22 21  1  0  0  0  0
 20 19  1  0  0  0  0
 16 15  1  0  0  0  0
 14 12  1  0  0  0  0
 14 13  1  0  0  0  0
 11 10  1  0  0  0  0
  9  8  1  0  0  0  0
  5  4  1  0  0  0  0
  3  1  1  0  0  0  0
  3  2  1  0  0  0  0
M  END
$$$$
