zggnhoh_min
  Spartan 04082118443D

 35 35  0  0  0  0  0  0  0  0999 V2000
    7.1658    3.1867   -1.2727 H   0  0  0  0  0  0  0  0  0  0  0  0
    7.0498    2.4777   -0.4517 C   0  0  0  0  0  0  0  0  0  0  0  0
    5.0398    1.9357   -1.0047 H   0  0  0  0  0  0  0  0  0  0  0  0
    5.8558    1.7737   -0.3017 C   0  0  0  0  0  0  0  0  0  0  0  0
   -2.5654    0.2304   -2.6166 H   0  0  0  0  0  0  0  0  0  0  0  0
   -1.7074    1.4394   -3.6026 H   0  0  0  0  0  0  0  0  0  0  0  0
   -1.5874    0.5714   -2.9546 C   0  0  0  0  0  0  0  0  0  0  0  0
    5.7008    0.8647    0.7433 C   0  0  0  0  0  0  0  0  0  0  0  0
   -2.4944   -3.3756   -4.8076 H   0  0  0  0  0  0  0  0  0  0  0  0
   -1.6464   -2.7216   -4.6056 O   0  0  0  0  0  0  0  0  0  0  0  0
   -1.0604    0.6604   -0.7756 H   0  0  0  0  0  0  0  0  0  0  0  0
   -0.8024    0.9634   -1.7906 N   0  0  0  0  0  0  0  0  0  0  0  0
    0.9386    3.0904   -0.5506 H   0  0  0  0  0  0  0  0  0  0  0  0
    2.2406    2.1344   -1.2986 H   0  0  0  0  0  0  0  0  0  0  0  0
    1.2086    2.1124   -0.9506 C   0  0  0  0  0  0  0  0  0  0  0  0
    0.0396    0.8374    0.4124 H   0  0  0  0  0  0  0  0  0  0  0  0
    1.0486    1.0864    0.0844 N   0  0  0  0  0  0  0  0  0  0  0  0
    0.2966    1.7534   -2.0786 C   0  0  0  0  0  0  0  0  0  0  0  0
    0.4736    2.1064   -3.2426 O   0  0  0  0  0  0  0  0  0  0  0  0
    6.6328   -0.0403    2.4633 H   0  0  0  0  0  0  0  0  0  0  0  0
    6.7488    0.6677    1.6423 C   0  0  0  0  0  0  0  0  0  0  0  0
   -0.9404   -0.5336   -3.7446 C   0  0  0  0  0  0  0  0  0  0  0  0
    0.1396   -0.7506   -4.2706 O   0  0  0  0  0  0  0  0  0  0  0  0
   -2.8914   -1.2286   -3.8686 H   0  0  0  0  0  0  0  0  0  0  0  0
   -1.8514   -1.4876   -4.0676 N   0  0  0  0  0  0  0  0  0  0  0  0
    8.7588    1.2137    2.2023 H   0  0  0  0  0  0  0  0  0  0  0  0
    7.9438    1.3707    1.4963 C   0  0  0  0  0  0  0  0  0  0  0  0
    9.0298    2.8227    0.3293 H   0  0  0  0  0  0  0  0  0  0  0  0
    8.0948    2.2747    0.4463 C   0  0  0  0  0  0  0  0  0  0  0  0
    4.5728   -0.9093    0.4403 H   0  0  0  0  0  0  0  0  0  0  0  0
    4.2048   -0.0393    1.9493 H   0  0  0  0  0  0  0  0  0  0  0  0
    4.4328    0.0747    0.8893 C   0  0  0  0  0  0  0  0  0  0  0  0
    3.3360    0.7280    0.2450 O   0  0  0  0  0  0  0  0  0  0  0  0
    2.1166    0.4114    0.6714 C   0  0  0  0  0  0  0  0  0  0  0  0
    1.9356   -0.4396    1.5474 O   0  0  0  0  0  0  0  0  0  0  0  0
  4  2  4  0  0  0  0
  2 29  4  0  0  0  0
  8  4  4  0  0  0  0
 12  7  1  0  0  0  0
  7 22  1  0  0  0  0
  8 21  4  0  0  0  0
 32  8  1  0  0  0  0
 25 10  1  0  0  0  0
 18 12  1  0  0  0  0
 17 15  1  0  0  0  0
 15 18  1  0  0  0  0
 34 17  1  0  0  0  0
 18 19  2  0  0  0  0
 21 27  4  0  0  0  0
 22 23  2  0  0  0  0
 22 25  1  0  0  0  0
 27 29  4  0  0  0  0
 33 32  1  0  0  0  0
 33 34  1  0  0  0  0
 34 35  2  0  0  0  0
 32 30  1  0  0  0  0
 32 31  1  0  0  0  0
 29 28  1  0  0  0  0
 27 26  1  0  0  0  0
 25 24  1  0  0  0  0
 21 20  1  0  0  0  0
 17 16  1  0  0  0  0
 15 13  1  0  0  0  0
 15 14  1  0  0  0  0
 12 11  1  0  0  0  0
 10  9  1  0  0  0  0
  7  5  1  0  0  0  0
  7  6  1  0  0  0  0
  4  3  1  0  0  0  0
  2  1  1  0  0  0  0
M  END
$$$$
