zgpclnh2_min
  Spartan 04082118483D

 48 48  0  0  0  0  0  0  0  0999 V2000
    0.1200   -4.7600   -0.8710 C   0  0  0  0  0  0  0  0  0  0  0  0
   -1.7010   -3.9400   -1.7510 H   0  0  0  0  0  0  0  0  0  0  0  0
   -0.6230   -3.8460   -1.6220 N   0  0  0  0  0  0  0  0  0  0  0  0
    0.4820   -2.0890   -1.4260 H   0  0  0  0  0  0  0  0  0  0  0  0
    1.0150   -3.1810   -2.7280 H   0  0  0  0  0  0  0  0  0  0  0  0
    0.1480   -2.7500   -2.2250 C   0  0  0  0  0  0  0  0  0  0  0  0
    1.3470   -4.6660   -0.7630 O   0  0  0  0  0  0  0  0  0  0  0  0
   -0.5670   -5.7570   -0.2550 O   0  0  0  0  0  0  0  0  0  0  0  0
    1.1790   -6.7730    0.1390 H   0  0  0  0  0  0  0  0  0  0  0  0
    0.3820   -6.0390    1.5500 H   0  0  0  0  0  0  0  0  0  0  0  0
    0.2190   -6.5730    0.6140 C   0  0  0  0  0  0  0  0  0  0  0  0
   -0.4600   -7.8800    0.9110 C   0  0  0  0  0  0  0  0  0  0  0  0
    0.4350   -8.9150   -0.7520 H   0  0  0  0  0  0  0  0  0  0  0  0
   -0.2400   -8.9910    0.1000 C   0  0  0  0  0  0  0  0  0  0  0  0
   -1.4930   -7.1230    2.6450 H   0  0  0  0  0  0  0  0  0  0  0  0
   -1.3200   -7.9880    2.0040 C   0  0  0  0  0  0  0  0  0  0  0  0
   -0.7050  -11.0670   -0.2620 H   0  0  0  0  0  0  0  0  0  0  0  0
   -0.8800  -10.2010    0.3750 C   0  0  0  0  0  0  0  0  0  0  0  0
   -2.6330   -9.2720    3.1360 H   0  0  0  0  0  0  0  0  0  0  0  0
   -1.9610   -9.1950    2.2810 C   0  0  0  0  0  0  0  0  0  0  0  0
   -2.2440  -11.2460    1.6770 H   0  0  0  0  0  0  0  0  0  0  0  0
   -1.7420  -10.3020    1.4630 C   0  0  0  0  0  0  0  0  0  0  0  0
   -0.7730   -1.7650   -3.4290 P   0  0  0  0  0  0  0  0  0  0  0  0
    0.1620   -0.9450   -4.2250 O   0  0  0  0  0  0  0  0  0  0  0  0
   -1.5750   -2.7680   -4.4590 O   0  0  0  0  0  0  0  0  0  0  0  0
   -2.9180   -1.0020   -2.6920 H   0  0  0  0  0  0  0  0  0  0  0  0
   -1.6560   -0.7080   -1.4710 H   0  0  0  0  0  0  0  0  0  0  0  0
   -1.8920   -0.6690   -2.5350 C   0  0  0  0  0  0  0  0  0  0  0  0
   -1.7090    0.7700   -4.1150 H   0  0  0  0  0  0  0  0  0  0  0  0
   -1.7550    0.7840   -3.0260 C   0  0  0  0  0  0  0  0  0  0  0  0
   -0.4950    1.4080   -2.4930 C   0  0  0  0  0  0  0  0  0  0  0  0
    0.3130    2.0350   -3.1890 O   0  0  0  0  0  0  0  0  0  0  0  0
   -3.8800    1.1110   -2.8960 H   0  0  0  0  0  0  0  0  0  0  0  0
   -2.9560    1.7100   -1.4970 H   0  0  0  0  0  0  0  0  0  0  0  0
   -2.9650    1.6140   -2.5830 C   0  0  0  0  0  0  0  0  0  0  0  0
   -1.8970    3.3890   -3.1250 H   0  0  0  0  0  0  0  0  0  0  0  0
   -2.9170    3.0140   -3.2130 C   0  0  0  0  0  0  0  0  0  0  0  0
   -3.2280    3.9620   -5.1250 H   0  0  0  0  0  0  0  0  0  0  0  0
   -2.5570    2.3170   -5.2220 H   0  0  0  0  0  0  0  0  0  0  0  0
   -4.2750    2.5550   -4.8240 H   0  0  0  0  0  0  0  0  0  0  0  0
   -3.2700    2.9580   -4.7040 C   0  0  0  0  0  0  0  0  0  0  0  0
   -3.7960    4.9610   -2.9310 H   0  0  0  0  0  0  0  0  0  0  0  0
   -4.8680    3.6030   -2.5130 H   0  0  0  0  0  0  0  0  0  0  0  0
   -3.5320    4.0480   -1.4250 H   0  0  0  0  0  0  0  0  0  0  0  0
   -3.8450    3.9760   -2.4670 C   0  0  0  0  0  0  0  0  0  0  0  0
    0.6090    1.6910   -0.6640 H   0  0  0  0  0  0  0  0  0  0  0  0
   -1.0090    0.7290   -0.5130 H   0  0  0  0  0  0  0  0  0  0  0  0
   -0.2830    1.2660   -1.1240 N   0  0  0  0  0  0  0  0  0  0  0  0
  1  3  1  0  0  0  0
  1  7  2  0  0  0  0
  1  8  1  0  0  0  0
  3  6  1  0  0  0  0
  6 23  1  0  0  0  0
  8 11  1  0  0  0  0
 11 12  1  0  0  0  0
 12 14  4  0  0  0  0
 12 16  4  0  0  0  0
 14 18  4  0  0  0  0
 16 20  4  0  0  0  0
 18 22  4  0  0  0  0
 20 22  4  0  0  0  0
 23 24  4  0  0  0  0
 23 25  4  0  0  0  0
 23 28  1  0  0  0  0
 28 30  1  0  0  0  0
 30 31  1  0  0  0  0
 30 35  1  0  0  0  0
 31 32  2  0  0  0  0
 31 48  1  0  0  0  0
 35 37  1  0  0  0  0
 37 41  1  0  0  0  0
 37 45  1  0  0  0  0
 48 46  1  0  0  0  0
 48 47  1  0  0  0  0
 45 42  1  0  0  0  0
 45 43  1  0  0  0  0
 45 44  1  0  0  0  0
 41 38  1  0  0  0  0
 41 39  1  0  0  0  0
 41 40  1  0  0  0  0
 37 36  1  0  0  0  0
 35 33  1  0  0  0  0
 35 34  1  0  0  0  0
 30 29  1  0  0  0  0
 28 26  1  0  0  0  0
 28 27  1  0  0  0  0
 22 21  1  0  0  0  0
 20 19  1  0  0  0  0
 18 17  1  0  0  0  0
 16 15  1  0  0  0  0
 14 13  1  0  0  0  0
 11  9  1  0  0  0  0
 11 10  1  0  0  0  0
  6  4  1  0  0  0  0
  6  5  1  0  0  0  0
  3  2  1  0  0  0  0
M  END
$$$$
