zgpclg_min
  Spartan 04082118513D

 53 53  0  0  0  0  0  0  0  0999 V2000
    0.0950   -4.7150   -0.8830 C   0  0  0  0  0  0  0  0  0  0  0  0
   -1.7270   -3.7970   -1.6390 H   0  0  0  0  0  0  0  0  0  0  0  0
   -0.6430   -3.7400   -1.5490 N   0  0  0  0  0  0  0  0  0  0  0  0
    0.3800   -1.9230   -1.3280 H   0  0  0  0  0  0  0  0  0  0  0  0
    1.0460   -3.0210   -2.5610 H   0  0  0  0  0  0  0  0  0  0  0  0
    0.1290   -2.6250   -2.1230 C   0  0  0  0  0  0  0  0  0  0  0  0
    1.3270   -4.6580   -0.7990 O   0  0  0  0  0  0  0  0  0  0  0  0
   -0.6030   -5.7310   -0.3210 O   0  0  0  0  0  0  0  0  0  0  0  0
    1.0890   -6.8820   -0.1410 H   0  0  0  0  0  0  0  0  0  0  0  0
    0.4080   -6.2690    1.3850 H   0  0  0  0  0  0  0  0  0  0  0  0
    0.1680   -6.6820    0.4050 C   0  0  0  0  0  0  0  0  0  0  0  0
   -0.5810   -7.9680    0.5870 C   0  0  0  0  0  0  0  0  0  0  0  0
    0.3900   -8.9520   -1.0660 H   0  0  0  0  0  0  0  0  0  0  0  0
   -0.3380   -9.0470   -0.2610 C   0  0  0  0  0  0  0  0  0  0  0  0
   -1.7130   -7.2470    2.2730 H   0  0  0  0  0  0  0  0  0  0  0  0
   -1.5170   -8.0920    1.6110 C   0  0  0  0  0  0  0  0  0  0  0  0
   -0.8300  -11.0890   -0.7470 H   0  0  0  0  0  0  0  0  0  0  0  0
   -1.0220  -10.2470   -0.0830 C   0  0  0  0  0  0  0  0  0  0  0  0
   -2.9350   -9.3850    2.5940 H   0  0  0  0  0  0  0  0  0  0  0  0
   -2.2030   -9.2900    1.7920 C   0  0  0  0  0  0  0  0  0  0  0  0
   -2.4900  -11.3060    1.0880 H   0  0  0  0  0  0  0  0  0  0  0  0
   -1.9550  -10.3680    0.9460 C   0  0  0  0  0  0  0  0  0  0  0  0
   -0.8020   -1.7480   -3.4070 P   0  0  0  0  0  0  0  0  0  0  0  0
    0.1050   -0.9660   -4.2810 O   0  0  0  0  0  0  0  0  0  0  0  0
   -1.5990   -2.8480   -4.3440 O   0  0  0  0  0  0  0  0  0  0  0  0
   -2.9620   -0.9370   -2.7730 H   0  0  0  0  0  0  0  0  0  0  0  0
   -1.7570   -0.6860   -1.4870 H   0  0  0  0  0  0  0  0  0  0  0  0
   -1.9390   -0.6280   -2.5600 C   0  0  0  0  0  0  0  0  0  0  0  0
   -1.6910    0.8410   -4.1060 H   0  0  0  0  0  0  0  0  0  0  0  0
   -1.7540    0.8280   -3.0180 C   0  0  0  0  0  0  0  0  0  0  0  0
   -0.4830    1.4050   -2.4550 C   0  0  0  0  0  0  0  0  0  0  0  0
    0.3560    2.0160   -3.1280 O   0  0  0  0  0  0  0  0  0  0  0  0
   -3.8720    1.2170   -2.9310 H   0  0  0  0  0  0  0  0  0  0  0  0
   -2.9730    1.7110   -1.4760 H   0  0  0  0  0  0  0  0  0  0  0  0
   -2.9520    1.6740   -2.5650 C   0  0  0  0  0  0  0  0  0  0  0  0
   -1.8430    3.4700   -2.9110 H   0  0  0  0  0  0  0  0  0  0  0  0
   -2.8490    3.1040   -3.1150 C   0  0  0  0  0  0  0  0  0  0  0  0
   -2.9800    4.1530   -4.9980 H   0  0  0  0  0  0  0  0  0  0  0  0
   -2.2980    2.5130   -5.1170 H   0  0  0  0  0  0  0  0  0  0  0  0
   -4.0470    2.7340   -4.8730 H   0  0  0  0  0  0  0  0  0  0  0  0
   -3.0590    3.1280   -4.6360 C   0  0  0  0  0  0  0  0  0  0  0  0
   -3.7540    5.0380   -2.8190 H   0  0  0  0  0  0  0  0  0  0  0  0
   -4.8590    3.6640   -2.5760 H   0  0  0  0  0  0  0  0  0  0  0  0
   -3.6340    4.0490   -1.3440 H   0  0  0  0  0  0  0  0  0  0  0  0
   -3.8460    4.0300   -2.4130 C   0  0  0  0  0  0  0  0  0  0  0  0
   -1.0740    0.7080   -0.5100 H   0  0  0  0  0  0  0  0  0  0  0  0
   -0.3150    1.2440   -1.0810 N   0  0  0  0  0  0  0  0  0  0  0  0
    1.3880    2.4740   -1.0450 H   0  0  0  0  0  0  0  0  0  0  0  0
    0.5430    2.3100    0.5130 H   0  0  0  0  0  0  0  0  0  0  0  0
    0.8680    1.7820   -0.3830 C   0  0  0  0  0  0  0  0  0  0  0  0
    1.8080    0.6790    0.0110 C   0  0  0  0  0  0  0  0  0  0  0  0
    1.5140   -0.2490    0.7570 O   0  0  0  0  0  0  0  0  0  0  0  0
    3.0590    0.7540   -0.4870 O   0  0  0  0  0  0  0  0  0  0  0  0
  1  3  1  0  0  0  0
  1  7  2  0  0  0  0
  1  8  1  0  0  0  0
  3  6  1  0  0  0  0
  6 23  1  0  0  0  0
  8 11  1  0  0  0  0
 11 12  1  0  0  0  0
 12 14  4  0  0  0  0
 12 16  4  0  0  0  0
 14 18  4  0  0  0  0
 16 20  4  0  0  0  0
 18 22  4  0  0  0  0
 20 22  4  0  0  0  0
 23 24  4  0  0  0  0
 23 25  4  0  0  0  0
 23 28  1  0  0  0  0
 28 30  1  0  0  0  0
 30 31  1  0  0  0  0
 30 35  1  0  0  0  0
 31 32  2  0  0  0  0
 31 47  1  0  0  0  0
 35 37  1  0  0  0  0
 37 41  1  0  0  0  0
 37 45  1  0  0  0  0
 47 50  1  0  0  0  0
 50 51  1  0  0  0  0
 51 53  4  0  0  0  0
 51 52  4  0  0  0  0
 50 48  1  0  0  0  0
 50 49  1  0  0  0  0
 47 46  1  0  0  0  0
 45 42  1  0  0  0  0
 45 43  1  0  0  0  0
 45 44  1  0  0  0  0
 41 38  1  0  0  0  0
 41 39  1  0  0  0  0
 41 40  1  0  0  0  0
 37 36  1  0  0  0  0
 35 33  1  0  0  0  0
 35 34  1  0  0  0  0
 30 29  1  0  0  0  0
 28 26  1  0  0  0  0
 28 27  1  0  0  0  0
 22 21  1  0  0  0  0
 20 19  1  0  0  0  0
 18 17  1  0  0  0  0
 16 15  1  0  0  0  0
 14 13  1  0  0  0  0
 11  9  1  0  0  0  0
 11 10  1  0  0  0  0
  6  4  1  0  0  0  0
  6  5  1  0  0  0  0
  3  2  1  0  0  0  0
M  END
$$$$
