zgpla_min
  Spartan 04082118503D

 55 55  0  0  0  0  0  0  0  0999 V2000
    0.2580   -4.5570   -1.1330 C   0  0  0  0  0  0  0  0  0  0  0  0
    1.4750   -4.4770   -1.3370 O   0  0  0  0  0  0  0  0  0  0  0  0
   -0.2790   -5.6180   -0.4830 O   0  0  0  0  0  0  0  0  0  0  0  0
    1.3660   -6.8140   -0.7710 H   0  0  0  0  0  0  0  0  0  0  0  0
    1.2730   -5.9980    0.8080 H   0  0  0  0  0  0  0  0  0  0  0  0
    0.6990   -6.5110    0.0360 C   0  0  0  0  0  0  0  0  0  0  0  0
    0.0690   -7.7300    0.6290 C   0  0  0  0  0  0  0  0  0  0  0  0
   -1.1180   -6.6360    2.0580 H   0  0  0  0  0  0  0  0  0  0  0  0
   -0.8440   -7.6200    1.6780 C   0  0  0  0  0  0  0  0  0  0  0  0
    1.1330   -9.0790   -0.6700 H   0  0  0  0  0  0  0  0  0  0  0  0
    0.4190   -8.9890    0.1480 C   0  0  0  0  0  0  0  0  0  0  0  0
   -2.1210   -8.6730    3.0600 H   0  0  0  0  0  0  0  0  0  0  0  0
   -1.4070   -8.7630    2.2410 C   0  0  0  0  0  0  0  0  0  0  0  0
    0.1340  -11.1200    0.3290 H   0  0  0  0  0  0  0  0  0  0  0  0
   -0.1420  -10.1360    0.7090 C   0  0  0  0  0  0  0  0  0  0  0  0
   -1.4930  -10.9200    2.1970 H   0  0  0  0  0  0  0  0  0  0  0  0
   -1.0550  -10.0250    1.7570 C   0  0  0  0  0  0  0  0  0  0  0  0
   -1.7190   -3.7220   -1.4830 H   0  0  0  0  0  0  0  0  0  0  0  0
   -0.6410   -3.5670   -1.5220 N   0  0  0  0  0  0  0  0  0  0  0  0
   -0.1090   -1.5760   -1.1760 H   0  0  0  0  0  0  0  0  0  0  0  0
    0.9880   -2.4780   -2.2490 H   0  0  0  0  0  0  0  0  0  0  0  0
   -0.0550   -2.3000   -1.9890 C   0  0  0  0  0  0  0  0  0  0  0  0
   -0.8930   -1.5970   -3.4370 P   0  0  0  0  0  0  0  0  0  0  0  0
    0.1120   -0.9320   -4.2980 O   0  0  0  0  0  0  0  0  0  0  0  0
   -1.5880   -2.8120   -4.3140 O   0  0  0  0  0  0  0  0  0  0  0  0
   -3.0180   -0.7480   -3.3010 H   0  0  0  0  0  0  0  0  0  0  0  0
   -2.0570   -0.4600   -2.8760 N   0  0  0  0  0  0  0  0  0  0  0  0
   -1.7620    1.0540   -4.2730 H   0  0  0  0  0  0  0  0  0  0  0  0
   -1.8520    0.9770   -3.1900 C   0  0  0  0  0  0  0  0  0  0  0  0
   -0.5910    1.4910   -2.5570 C   0  0  0  0  0  0  0  0  0  0  0  0
    0.2880    2.0840   -3.1860 O   0  0  0  0  0  0  0  0  0  0  0  0
   -3.9490    1.4850   -3.2540 H   0  0  0  0  0  0  0  0  0  0  0  0
   -3.1770    1.7520   -1.6720 H   0  0  0  0  0  0  0  0  0  0  0  0
   -3.0490    1.8400   -2.7510 C   0  0  0  0  0  0  0  0  0  0  0  0
   -1.8110    3.5840   -2.7910 H   0  0  0  0  0  0  0  0  0  0  0  0
   -2.8170    3.3160   -3.1130 C   0  0  0  0  0  0  0  0  0  0  0  0
   -2.7240    4.5880   -4.8550 H   0  0  0  0  0  0  0  0  0  0  0  0
   -2.1280    2.9320   -5.1220 H   0  0  0  0  0  0  0  0  0  0  0  0
   -3.8770    3.2380   -4.9920 H   0  0  0  0  0  0  0  0  0  0  0  0
   -2.8920    3.5340   -4.6310 C   0  0  0  0  0  0  0  0  0  0  0  0
   -3.6150    5.2630   -2.6480 H   0  0  0  0  0  0  0  0  0  0  0  0
   -4.8220    3.9550   -2.6470 H   0  0  0  0  0  0  0  0  0  0  0  0
   -3.6700    4.1050   -1.2980 H   0  0  0  0  0  0  0  0  0  0  0  0
   -3.8020    4.2250   -2.3730 C   0  0  0  0  0  0  0  0  0  0  0  0
   -1.2220    0.7430   -0.6370 H   0  0  0  0  0  0  0  0  0  0  0  0
   -0.4620    1.3000   -1.1850 N   0  0  0  0  0  0  0  0  0  0  0  0
    1.2280    2.5280   -1.1500 H   0  0  0  0  0  0  0  0  0  0  0  0
    0.7060    1.8510   -0.4750 C   0  0  0  0  0  0  0  0  0  0  0  0
    1.6730    0.7660   -0.0950 C   0  0  0  0  0  0  0  0  0  0  0  0
    1.4170   -0.1650    0.6620 O   0  0  0  0  0  0  0  0  0  0  0  0
    1.1340    3.0540    1.2630 H   0  0  0  0  0  0  0  0  0  0  0  0
   -0.3820    3.4770    0.4330 H   0  0  0  0  0  0  0  0  0  0  0  0
   -0.2940    2.0050    1.4300 H   0  0  0  0  0  0  0  0  0  0  0  0
    0.2590    2.6550    0.7510 C   0  0  0  0  0  0  0  0  0  0  0  0
    2.9070    0.8580   -0.6340 O   0  0  0  0  0  0  0  0  0  0  0  0
  1 19  1  0  0  0  0
  1  2  2  0  0  0  0
  1  3  1  0  0  0  0
  3  6  1  0  0  0  0
  6  7  1  0  0  0  0
  7  9  4  0  0  0  0
  7 11  4  0  0  0  0
  9 13  4  0  0  0  0
 11 15  4  0  0  0  0
 13 17  4  0  0  0  0
 15 17  4  0  0  0  0
 19 22  1  0  0  0  0
 22 23  1  0  0  0  0
 23 24  4  0  0  0  0
 23 25  4  0  0  0  0
 23 27  1  0  0  0  0
 27 29  1  0  0  0  0
 29 30  1  0  0  0  0
 29 34  1  0  0  0  0
 30 46  1  0  0  0  0
 30 31  2  0  0  0  0
 34 36  1  0  0  0  0
 36 40  1  0  0  0  0
 36 44  1  0  0  0  0
 46 48  1  0  0  0  0
 48 49  1  0  0  0  0
 48 54  1  0  0  0  0
 49 50  4  0  0  0  0
 49 55  4  0  0  0  0
 54 51  1  0  0  0  0
 54 52  1  0  0  0  0
 54 53  1  0  0  0  0
 48 47  1  0  0  0  0
 46 45  1  0  0  0  0
 44 41  1  0  0  0  0
 44 42  1  0  0  0  0
 44 43  1  0  0  0  0
 40 37  1  0  0  0  0
 40 38  1  0  0  0  0
 40 39  1  0  0  0  0
 36 35  1  0  0  0  0
 34 32  1  0  0  0  0
 34 33  1  0  0  0  0
 29 28  1  0  0  0  0
 27 26  1  0  0  0  0
 22 20  1  0  0  0  0
 22 21  1  0  0  0  0
 19 18  1  0  0  0  0
 17 16  1  0  0  0  0
 15 14  1  0  0  0  0
 13 12  1  0  0  0  0
 11 10  1  0  0  0  0
  9  8  1  0  0  0  0
  6  4  1  0  0  0  0
  6  5  1  0  0  0  0
M  END
$$$$
