zgplg_min
  Spartan 04082118503D

 52 52  0  0  0  0  0  0  0  0999 V2000
   -0.0250   -4.6670   -1.2620 C   0  0  0  0  0  0  0  0  0  0  0  0
   -1.9780   -3.8150   -1.7980 H   0  0  0  0  0  0  0  0  0  0  0  0
   -0.9030   -3.6700   -1.6970 N   0  0  0  0  0  0  0  0  0  0  0  0
   -0.3120   -1.7350   -1.1470 H   0  0  0  0  0  0  0  0  0  0  0  0
    0.8340   -2.6060   -2.1940 H   0  0  0  0  0  0  0  0  0  0  0  0
   -0.2200   -2.4010   -2.0050 C   0  0  0  0  0  0  0  0  0  0  0  0
    1.2060   -4.5220   -1.3000 O   0  0  0  0  0  0  0  0  0  0  0  0
   -0.5760   -5.8020   -0.7640 O   0  0  0  0  0  0  0  0  0  0  0  0
    1.0000   -7.1020   -0.9790 H   0  0  0  0  0  0  0  0  0  0  0  0
    0.9040   -6.2600    0.5860 H   0  0  0  0  0  0  0  0  0  0  0  0
    0.3260   -6.7480   -0.2000 C   0  0  0  0  0  0  0  0  0  0  0  0
   -0.4020   -7.9200    0.3870 C   0  0  0  0  0  0  0  0  0  0  0  0
    0.3960   -9.3230   -1.0410 H   0  0  0  0  0  0  0  0  0  0  0  0
   -0.2450   -9.1880   -0.1710 C   0  0  0  0  0  0  0  0  0  0  0  0
   -1.3510   -6.7600    1.9360 H   0  0  0  0  0  0  0  0  0  0  0  0
   -1.2250   -7.7500    1.4990 C   0  0  0  0  0  0  0  0  0  0  0  0
   -0.7830  -11.2730   -0.0570 H   0  0  0  0  0  0  0  0  0  0  0  0
   -0.9080  -10.2830    0.3820 C   0  0  0  0  0  0  0  0  0  0  0  0
   -2.5250   -8.7100    2.9260 H   0  0  0  0  0  0  0  0  0  0  0  0
   -1.8850   -8.8450    2.0540 C   0  0  0  0  0  0  0  0  0  0  0  0
   -2.2460  -10.9670    1.9270 H   0  0  0  0  0  0  0  0  0  0  0  0
   -1.7270  -10.1110    1.4940 C   0  0  0  0  0  0  0  0  0  0  0  0
   -0.9280   -1.5890   -3.4560 P   0  0  0  0  0  0  0  0  0  0  0  0
    0.1430   -0.9250   -4.2380 O   0  0  0  0  0  0  0  0  0  0  0  0
   -1.6130   -2.7340   -4.4270 O   0  0  0  0  0  0  0  0  0  0  0  0
   -3.0350   -0.7150   -3.3100 H   0  0  0  0  0  0  0  0  0  0  0  0
   -2.0730   -0.4530   -2.8710 N   0  0  0  0  0  0  0  0  0  0  0  0
   -1.7730    1.1070   -4.2120 H   0  0  0  0  0  0  0  0  0  0  0  0
   -1.8530    0.9870   -3.1320 C   0  0  0  0  0  0  0  0  0  0  0  0
   -0.5730    1.4770   -2.5090 C   0  0  0  0  0  0  0  0  0  0  0  0
    0.3090    2.0650   -3.1460 O   0  0  0  0  0  0  0  0  0  0  0  0
   -3.9590    1.4320   -3.0530 H   0  0  0  0  0  0  0  0  0  0  0  0
   -3.0800    1.7670   -1.5420 H   0  0  0  0  0  0  0  0  0  0  0  0
   -3.0350    1.8250   -2.6290 C   0  0  0  0  0  0  0  0  0  0  0  0
   -1.8710    3.6190   -2.7550 H   0  0  0  0  0  0  0  0  0  0  0  0
   -2.8670    3.2910   -3.0510 C   0  0  0  0  0  0  0  0  0  0  0  0
   -2.8570    4.4890   -4.8470 H   0  0  0  0  0  0  0  0  0  0  0  0
   -2.2020    2.8470   -5.0560 H   0  0  0  0  0  0  0  0  0  0  0  0
   -3.9590    3.0910   -4.9030 H   0  0  0  0  0  0  0  0  0  0  0  0
   -2.9800    3.4400   -4.5750 C   0  0  0  0  0  0  0  0  0  0  0  0
   -3.7600    5.2100   -2.6530 H   0  0  0  0  0  0  0  0  0  0  0  0
   -4.8990    3.8440   -2.6020 H   0  0  0  0  0  0  0  0  0  0  0  0
   -3.7550    4.0990   -1.2630 H   0  0  0  0  0  0  0  0  0  0  0  0
   -3.8940    4.1740   -2.3420 C   0  0  0  0  0  0  0  0  0  0  0  0
   -1.2110    0.7130   -0.6060 H   0  0  0  0  0  0  0  0  0  0  0  0
   -0.4420    1.2720   -1.1390 N   0  0  0  0  0  0  0  0  0  0  0  0
    1.2160    2.5530   -1.0020 H   0  0  0  0  0  0  0  0  0  0  0  0
    0.3690    2.2470    0.5340 H   0  0  0  0  0  0  0  0  0  0  0  0
    0.7170    1.7970   -0.3960 C   0  0  0  0  0  0  0  0  0  0  0  0
    1.6950    0.7030   -0.0740 C   0  0  0  0  0  0  0  0  0  0  0  0
    1.4550   -0.2500    0.6580 O   0  0  0  0  0  0  0  0  0  0  0  0
    2.9190    0.8230   -0.6250 O   0  0  0  0  0  0  0  0  0  0  0  0
  1  7  2  0  0  0  0
  1  8  1  0  0  0  0
  1  3  1  0  0  0  0
  3  6  1  0  0  0  0
  6 23  1  0  0  0  0
  8 11  1  0  0  0  0
 11 12  1  0  0  0  0
 12 14  4  0  0  0  0
 12 16  4  0  0  0  0
 14 18  4  0  0  0  0
 16 20  4  0  0  0  0
 18 22  4  0  0  0  0
 20 22  4  0  0  0  0
 23 24  4  0  0  0  0
 23 25  4  0  0  0  0
 23 27  1  0  0  0  0
 27 29  1  0  0  0  0
 29 30  1  0  0  0  0
 29 34  1  0  0  0  0
 30 31  2  0  0  0  0
 30 46  1  0  0  0  0
 34 36  1  0  0  0  0
 36 40  1  0  0  0  0
 36 44  1  0  0  0  0
 46 49  1  0  0  0  0
 49 50  1  0  0  0  0
 50 51  4  0  0  0  0
 50 52  4  0  0  0  0
 49 47  1  0  0  0  0
 49 48  1  0  0  0  0
 46 45  1  0  0  0  0
 44 41  1  0  0  0  0
 44 42  1  0  0  0  0
 44 43  1  0  0  0  0
 40 37  1  0  0  0  0
 40 38  1  0  0  0  0
 40 39  1  0  0  0  0
 36 35  1  0  0  0  0
 34 32  1  0  0  0  0
 34 33  1  0  0  0  0
 29 28  1  0  0  0  0
 27 26  1  0  0  0  0
 22 21  1  0  0  0  0
 20 19  1  0  0  0  0
 18 17  1  0  0  0  0
 16 15  1  0  0  0  0
 14 13  1  0  0  0  0
 11  9  1  0  0  0  0
 11 10  1  0  0  0  0
  6  4  1  0  0  0  0
  6  5  1  0  0  0  0
  3  2  1  0  0  0  0
M  END
$$$$
