zgpolnh2_min
  Spartan 04082118493D

 46 46  0  0  0  0  0  0  0  0999 V2000
    0.2620   -4.5340   -1.0550 C   0  0  0  0  0  0  0  0  0  0  0  0
   -1.6950   -3.8440   -1.7790 H   0  0  0  0  0  0  0  0  0  0  0  0
   -0.6330   -3.6370   -1.6400 N   0  0  0  0  0  0  0  0  0  0  0  0
    0.0270   -1.6960   -1.2010 H   0  0  0  0  0  0  0  0  0  0  0  0
    1.0370   -2.5930   -2.3600 H   0  0  0  0  0  0  0  0  0  0  0  0
    0.0140   -2.3790   -2.0500 C   0  0  0  0  0  0  0  0  0  0  0  0
    1.4830   -4.3320   -1.0260 O   0  0  0  0  0  0  0  0  0  0  0  0
   -0.2820   -5.6390   -0.4980 O   0  0  0  0  0  0  0  0  0  0  0  0
    1.4360   -6.7650   -0.4120 H   0  0  0  0  0  0  0  0  0  0  0  0
    0.9830   -5.9350    1.0960 H   0  0  0  0  0  0  0  0  0  0  0  0
    0.6040   -6.4810    0.2320 C   0  0  0  0  0  0  0  0  0  0  0  0
   -0.0940   -7.7210    0.7060 C   0  0  0  0  0  0  0  0  0  0  0  0
    0.6020   -8.9400   -0.9310 H   0  0  0  0  0  0  0  0  0  0  0  0
    0.0120   -8.9100   -0.0150 C   0  0  0  0  0  0  0  0  0  0  0  0
   -0.9390   -6.7570    2.4390 H   0  0  0  0  0  0  0  0  0  0  0  0
   -0.8560   -7.6850    1.8740 C   0  0  0  0  0  0  0  0  0  0  0  0
   -0.5480  -10.9910   -0.1320 H   0  0  0  0  0  0  0  0  0  0  0  0
   -0.6360  -10.0610    0.4310 C   0  0  0  0  0  0  0  0  0  0  0  0
   -2.1100   -8.8000    3.2300 H   0  0  0  0  0  0  0  0  0  0  0  0
   -1.5100   -8.8320    2.3200 C   0  0  0  0  0  0  0  0  0  0  0  0
   -1.9020  -10.9200    1.9500 H   0  0  0  0  0  0  0  0  0  0  0  0
   -1.3960  -10.0200    1.5990 C   0  0  0  0  0  0  0  0  0  0  0  0
   -0.8620   -1.5920   -3.4210 P   0  0  0  0  0  0  0  0  0  0  0  0
    0.1140   -0.9080   -4.2980 O   0  0  0  0  0  0  0  0  0  0  0  0
   -1.5980   -2.7690   -4.3260 O   0  0  0  0  0  0  0  0  0  0  0  0
   -1.9260   -0.5180   -2.7390 O   0  0  0  0  0  0  0  0  0  0  0  0
   -1.7330    0.9570   -4.1390 H   0  0  0  0  0  0  0  0  0  0  0  0
   -1.7780    0.8690   -3.0530 C   0  0  0  0  0  0  0  0  0  0  0  0
   -0.5000    1.4080   -2.4630 C   0  0  0  0  0  0  0  0  0  0  0  0
    0.3370    2.0330   -3.1190 O   0  0  0  0  0  0  0  0  0  0  0  0
   -3.8900    1.2760   -2.9990 H   0  0  0  0  0  0  0  0  0  0  0  0
   -3.0300    1.6450   -1.4850 H   0  0  0  0  0  0  0  0  0  0  0  0
   -2.9780    1.6930   -2.5730 C   0  0  0  0  0  0  0  0  0  0  0  0
   -1.8600    3.5130   -2.7100 H   0  0  0  0  0  0  0  0  0  0  0  0
   -2.8490    3.1620   -3.0040 C   0  0  0  0  0  0  0  0  0  0  0  0
   -2.8690    4.3590   -4.8000 H   0  0  0  0  0  0  0  0  0  0  0  0
   -2.1720    2.7350   -5.0090 H   0  0  0  0  0  0  0  0  0  0  0  0
   -3.9340    2.9330   -4.8570 H   0  0  0  0  0  0  0  0  0  0  0  0
   -2.9650    3.3080   -4.5280 C   0  0  0  0  0  0  0  0  0  0  0  0
   -3.7990    5.0580   -2.6150 H   0  0  0  0  0  0  0  0  0  0  0  0
   -4.8990    3.6600   -2.5590 H   0  0  0  0  0  0  0  0  0  0  0  0
   -3.7640    3.9540   -1.2200 H   0  0  0  0  0  0  0  0  0  0  0  0
   -3.9040    4.0200   -2.2980 C   0  0  0  0  0  0  0  0  0  0  0  0
    0.6180    1.5410   -0.6260 H   0  0  0  0  0  0  0  0  0  0  0  0
   -1.0300    0.6260   -0.5270 H   0  0  0  0  0  0  0  0  0  0  0  0
   -0.2890    1.1750   -1.1080 N   0  0  0  0  0  0  0  0  0  0  0  0
  1  3  1  0  0  0  0
  1  7  2  0  0  0  0
  1  8  1  0  0  0  0
  3  6  1  0  0  0  0
  6 23  1  0  0  0  0
  8 11  1  0  0  0  0
 11 12  1  0  0  0  0
 12 14  4  0  0  0  0
 12 16  4  0  0  0  0
 14 18  4  0  0  0  0
 16 20  4  0  0  0  0
 18 22  4  0  0  0  0
 20 22  4  0  0  0  0
 23 24  4  0  0  0  0
 23 25  4  0  0  0  0
 23 26  1  0  0  0  0
 26 28  1  0  0  0  0
 28 29  1  0  0  0  0
 28 33  1  0  0  0  0
 29 30  2  0  0  0  0
 29 46  1  0  0  0  0
 33 35  1  0  0  0  0
 35 39  1  0  0  0  0
 35 43  1  0  0  0  0
 46 44  1  0  0  0  0
 46 45  1  0  0  0  0
 43 40  1  0  0  0  0
 43 41  1  0  0  0  0
 43 42  1  0  0  0  0
 39 36  1  0  0  0  0
 39 37  1  0  0  0  0
 39 38  1  0  0  0  0
 35 34  1  0  0  0  0
 33 31  1  0  0  0  0
 33 32  1  0  0  0  0
 28 27  1  0  0  0  0
 22 21  1  0  0  0  0
 20 19  1  0  0  0  0
 18 17  1  0  0  0  0
 16 15  1  0  0  0  0
 14 13  1  0  0  0  0
 11  9  1  0  0  0  0
 11 10  1  0  0  0  0
  6  4  1  0  0  0  0
  6  5  1  0  0  0  0
  3  2  1  0  0  0  0
M  END
$$$$
