zlpola_min
  Spartan 04082118493D

 66 66  0  0  0  0  0  0  0  0999 V2000
   -1.2080   -5.2680   -3.6590 C   0  0  0  0  0  0  0  0  0  0  0  0
   -2.4370   -5.2970   -3.4770 O   0  0  0  0  0  0  0  0  0  0  0  0
   -0.5820   -6.2510   -4.3500 O   0  0  0  0  0  0  0  0  0  0  0  0
   -2.0390   -7.6850   -4.1130 H   0  0  0  0  0  0  0  0  0  0  0  0
   -1.9410   -6.9470   -5.7300 H   0  0  0  0  0  0  0  0  0  0  0  0
   -1.3620   -7.3130   -4.8820 C   0  0  0  0  0  0  0  0  0  0  0  0
   -0.4660   -8.4240   -5.3350 C   0  0  0  0  0  0  0  0  0  0  0  0
   -0.7000   -7.9760   -7.4310 H   0  0  0  0  0  0  0  0  0  0  0  0
   -0.2280   -8.6250   -6.6940 C   0  0  0  0  0  0  0  0  0  0  0  0
   -0.0370   -9.0940   -3.3330 H   0  0  0  0  0  0  0  0  0  0  0  0
    0.1440   -9.2530   -4.3960 C   0  0  0  0  0  0  0  0  0  0  0  0
    0.7960   -9.8120   -8.1720 H   0  0  0  0  0  0  0  0  0  0  0  0
    0.6120   -9.6560   -7.1090 C   0  0  0  0  0  0  0  0  0  0  0  0
    1.4560  -10.9340   -4.0740 H   0  0  0  0  0  0  0  0  0  0  0  0
    0.9830  -10.2850   -4.8110 C   0  0  0  0  0  0  0  0  0  0  0  0
    1.8730  -11.2940   -6.4970 H   0  0  0  0  0  0  0  0  0  0  0  0
    1.2170  -10.4870   -6.1700 C   0  0  0  0  0  0  0  0  0  0  0  0
    0.7310   -4.3730   -3.4790 H   0  0  0  0  0  0  0  0  0  0  0  0
   -0.3240   -4.2710   -3.2250 N   0  0  0  0  0  0  0  0  0  0  0  0
   -1.6510   -3.3460   -1.9000 H   0  0  0  0  0  0  0  0  0  0  0  0
   -0.7400   -3.0900   -2.4420 C   0  0  0  0  0  0  0  0  0  0  0  0
   -1.0930   -1.7000   -3.5490 P   0  0  0  0  0  0  0  0  0  0  0  0
    0.1090   -1.1570   -4.1880 O   0  0  0  0  0  0  0  0  0  0  0  0
   -1.9080   -2.3000   -4.8150 O   0  0  0  0  0  0  0  0  0  0  0  0
    1.2870   -2.6180   -1.8940 H   0  0  0  0  0  0  0  0  0  0  0  0
    0.0490   -1.7470   -0.9570 H   0  0  0  0  0  0  0  0  0  0  0  0
    0.3190   -2.7050   -1.4010 C   0  0  0  0  0  0  0  0  0  0  0  0
    0.5050   -4.7420   -0.7610 H   0  0  0  0  0  0  0  0  0  0  0  0
    0.4140   -3.7610   -0.2930 C   0  0  0  0  0  0  0  0  0  0  0  0
    1.7060   -4.2730    1.3550 H   0  0  0  0  0  0  0  0  0  0  0  0
    2.5470   -3.5690   -0.0470 H   0  0  0  0  0  0  0  0  0  0  0  0
    1.5860   -2.5270    1.0290 H   0  0  0  0  0  0  0  0  0  0  0  0
    1.6520   -3.5150    0.5730 C   0  0  0  0  0  0  0  0  0  0  0  0
   -0.7650   -4.5120    1.3520 H   0  0  0  0  0  0  0  0  0  0  0  0
   -0.9760   -2.7740    1.0310 H   0  0  0  0  0  0  0  0  0  0  0  0
   -1.7200   -3.9760   -0.0510 H   0  0  0  0  0  0  0  0  0  0  0  0
   -0.8540   -3.7550    0.5720 C   0  0  0  0  0  0  0  0  0  0  0  0
   -1.9210   -0.5430   -2.6970 O   0  0  0  0  0  0  0  0  0  0  0  0
   -1.7360    0.8690   -4.1680 H   0  0  0  0  0  0  0  0  0  0  0  0
   -1.7780    0.8270   -3.0800 C   0  0  0  0  0  0  0  0  0  0  0  0
   -0.5100    1.3990   -2.5110 C   0  0  0  0  0  0  0  0  0  0  0  0
    0.3340    2.0110   -3.1710 O   0  0  0  0  0  0  0  0  0  0  0  0
   -3.8960    1.2140   -2.9850 H   0  0  0  0  0  0  0  0  0  0  0  0
   -3.0010    1.6530   -1.5100 H   0  0  0  0  0  0  0  0  0  0  0  0
   -2.9770    1.6560   -2.5990 C   0  0  0  0  0  0  0  0  0  0  0  0
   -1.8550    3.4560   -2.8870 H   0  0  0  0  0  0  0  0  0  0  0  0
   -2.8650    3.1040   -3.0980 C   0  0  0  0  0  0  0  0  0  0  0  0
   -2.9980    4.2200   -4.9410 H   0  0  0  0  0  0  0  0  0  0  0  0
   -2.3290    2.5800   -5.1220 H   0  0  0  0  0  0  0  0  0  0  0  0
   -4.0750    2.8050   -4.8600 H   0  0  0  0  0  0  0  0  0  0  0  0
   -3.0830    3.1830   -4.6150 C   0  0  0  0  0  0  0  0  0  0  0  0
   -3.7530    5.0310   -2.7260 H   0  0  0  0  0  0  0  0  0  0  0  0
   -4.8670    3.6570   -2.5270 H   0  0  0  0  0  0  0  0  0  0  0  0
   -3.6310    3.9880   -1.2890 H   0  0  0  0  0  0  0  0  0  0  0  0
   -3.8500    4.0100   -2.3570 C   0  0  0  0  0  0  0  0  0  0  0  0
   -1.0950    0.6940   -0.5640 H   0  0  0  0  0  0  0  0  0  0  0  0
   -0.3470    1.2400   -1.1380 N   0  0  0  0  0  0  0  0  0  0  0  0
    1.3620    2.4350   -1.1670 H   0  0  0  0  0  0  0  0  0  0  0  0
    0.8300    1.8050   -0.4540 C   0  0  0  0  0  0  0  0  0  0  0  0
    1.7770    0.7250   -0.0140 C   0  0  0  0  0  0  0  0  0  0  0  0
    1.4900   -0.1760    0.7680 O   0  0  0  0  0  0  0  0  0  0  0  0
    1.2830    3.0840    1.2210 H   0  0  0  0  0  0  0  0  0  0  0  0
   -0.2260    3.4940    0.3710 H   0  0  0  0  0  0  0  0  0  0  0  0
   -0.1650    2.0720    1.4400 H   0  0  0  0  0  0  0  0  0  0  0  0
    0.4000    2.6760    0.7300 C   0  0  0  0  0  0  0  0  0  0  0  0
    3.0290    0.7860   -0.5150 O   0  0  0  0  0  0  0  0  0  0  0  0
  1  2  2  0  0  0  0
  1  3  1  0  0  0  0
  1 19  1  0  0  0  0
  3  6  1  0  0  0  0
  6  7  1  0  0  0  0
  7  9  4  0  0  0  0
  7 11  4  0  0  0  0
  9 13  4  0  0  0  0
 11 15  4  0  0  0  0
 13 17  4  0  0  0  0
 15 17  4  0  0  0  0
 19 21  1  0  0  0  0
 21 27  1  0  0  0  0
 21 22  1  0  0  0  0
 22 24  4  0  0  0  0
 22 38  1  0  0  0  0
 22 23  4  0  0  0  0
 27 29  1  0  0  0  0
 29 33  1  0  0  0  0
 29 37  1  0  0  0  0
 38 40  1  0  0  0  0
 40 41  1  0  0  0  0
 40 45  1  0  0  0  0
 41 42  2  0  0  0  0
 41 57  1  0  0  0  0
 45 47  1  0  0  0  0
 47 51  1  0  0  0  0
 47 55  1  0  0  0  0
 57 59  1  0  0  0  0
 59 60  1  0  0  0  0
 59 65  1  0  0  0  0
 60 61  4  0  0  0  0
 60 66  4  0  0  0  0
 65 62  1  0  0  0  0
 65 63  1  0  0  0  0
 65 64  1  0  0  0  0
 59 58  1  0  0  0  0
 57 56  1  0  0  0  0
 55 52  1  0  0  0  0
 55 53  1  0  0  0  0
 55 54  1  0  0  0  0
 51 48  1  0  0  0  0
 51 49  1  0  0  0  0
 51 50  1  0  0  0  0
 47 46  1  0  0  0  0
 45 43  1  0  0  0  0
 45 44  1  0  0  0  0
 40 39  1  0  0  0  0
 37 34  1  0  0  0  0
 37 35  1  0  0  0  0
 37 36  1  0  0  0  0
 33 30  1  0  0  0  0
 33 31  1  0  0  0  0
 33 32  1  0  0  0  0
 29 28  1  0  0  0  0
 27 25  1  0  0  0  0
 27 26  1  0  0  0  0
 21 20  1  0  0  0  0
 19 18  1  0  0  0  0
 17 16  1  0  0  0  0
 15 14  1  0  0  0  0
 13 12  1  0  0  0  0
 11 10  1  0  0  0  0
  9  8  1  0  0  0  0
  6  4  1  0  0  0  0
  6  5  1  0  0  0  0
M  END
$$$$
