zygnh2_min
  Spartan 04082118483D

 48 49  0  0  0  0  0  0  0  0999 V2000
    8.7690    1.2910    2.1370 H   0  0  0  0  0  0  0  0  0  0  0  0
    7.9020    1.3820    1.4840 C   0  0  0  0  0  0  0  0  0  0  0  0
    6.7640   -0.1150    2.5360 H   0  0  0  0  0  0  0  0  0  0  0  0
    6.7750    0.5930    1.7070 C   0  0  0  0  0  0  0  0  0  0  0  0
    0.2330   -1.5390   -1.5750 H   0  0  0  0  0  0  0  0  0  0  0  0
   -1.4400   -1.1970   -1.0740 H   0  0  0  0  0  0  0  0  0  0  0  0
   -0.7520   -1.2240   -1.9190 C   0  0  0  0  0  0  0  0  0  0  0  0
    5.6620    0.7040    0.8750 C   0  0  0  0  0  0  0  0  0  0  0  0
   -1.5360    0.3920   -3.1560 H   0  0  0  0  0  0  0  0  0  0  0  0
   -0.6730    0.0980   -2.5580 N   0  0  0  0  0  0  0  0  0  0  0  0
    2.3270    0.7240   -1.8110 H   0  0  0  0  0  0  0  0  0  0  0  0
    1.4140    1.1740   -1.4210 C   0  0  0  0  0  0  0  0  0  0  0  0
    0.0830    0.2260    0.0830 H   0  0  0  0  0  0  0  0  0  0  0  0
    1.1220    0.4130   -0.1900 N   0  0  0  0  0  0  0  0  0  0  0  0
    0.3660    1.0200   -2.4950 C   0  0  0  0  0  0  0  0  0  0  0  0
    0.4730    1.6970   -3.5110 O   0  0  0  0  0  0  0  0  0  0  0  0
    4.8110    1.7120   -0.8290 H   0  0  0  0  0  0  0  0  0  0  0  0
    5.6810    1.6160   -0.1790 C   0  0  0  0  0  0  0  0  0  0  0  0
   -1.2550   -2.1520   -2.9660 C   0  0  0  0  0  0  0  0  0  0  0  0
   -0.7420   -2.1910   -4.0780 O   0  0  0  0  0  0  0  0  0  0  0  0
    1.1120    3.1110    0.1660 C   0  0  0  0  0  0  0  0  0  0  0  0
   -2.7910   -3.5670   -3.4560 H   0  0  0  0  0  0  0  0  0  0  0  0
   -2.9130   -2.7650   -1.7510 H   0  0  0  0  0  0  0  0  0  0  0  0
   -2.4000   -2.8790   -2.7060 N   0  0  0  0  0  0  0  0  0  0  0  0
    6.8160    3.1160   -1.2330 H   0  0  0  0  0  0  0  0  0  0  0  0
    6.8060    2.4060   -0.4060 C   0  0  0  0  0  0  0  0  0  0  0  0
    8.8000    2.9030    0.2470 H   0  0  0  0  0  0  0  0  0  0  0  0
    7.9180    2.2880    0.4250 C   0  0  0  0  0  0  0  0  0  0  0  0
    4.7420   -1.2110    0.9240 H   0  0  0  0  0  0  0  0  0  0  0  0
    4.1290   -0.0590    2.1350 H   0  0  0  0  0  0  0  0  0  0  0  0
    4.4640   -0.1730    1.1040 C   0  0  0  0  0  0  0  0  0  0  0  0
    3.4030    0.1850    0.2260 O   0  0  0  0  0  0  0  0  0  0  0  0
    2.1350   -0.0710    0.6300 C   0  0  0  0  0  0  0  0  0  0  0  0
    1.8940   -0.6790    1.6760 O   0  0  0  0  0  0  0  0  0  0  0  0
    3.0580    3.4400    1.0350 H   0  0  0  0  0  0  0  0  0  0  0  0
    1.9810    3.4370    1.2080 C   0  0  0  0  0  0  0  0  0  0  0  0
    2.1560    4.0260    3.2780 H   0  0  0  0  0  0  0  0  0  0  0  0
    1.4820    3.7590    2.4640 C   0  0  0  0  0  0  0  0  0  0  0  0
    0.1020    3.7330    2.6660 C   0  0  0  0  0  0  0  0  0  0  0  0
   -1.8570    3.4660    1.7910 H   0  0  0  0  0  0  0  0  0  0  0  0
   -0.7800    3.4500    1.6220 C   0  0  0  0  0  0  0  0  0  0  0  0
   -0.9480    2.9410   -0.4630 H   0  0  0  0  0  0  0  0  0  0  0  0
   -0.2710    3.1480    0.3650 C   0  0  0  0  0  0  0  0  0  0  0  0
    2.7800    2.8170   -1.1130 H   0  0  0  0  0  0  0  0  0  0  0  0
    1.2710    3.2630   -1.9440 H   0  0  0  0  0  0  0  0  0  0  0  0
    1.7010    2.6650   -1.1410 C   0  0  0  0  0  0  0  0  0  0  0  0
   -1.4690    3.9450    4.0930 H   0  0  0  0  0  0  0  0  0  0  0  0
   -0.3930    3.9620    3.9200 O   0  0  0  0  0  0  0  0  0  0  0  0
  2 28  4  0  0  0  0
  4  2  4  0  0  0  0
  8  4  4  0  0  0  0
 10  7  1  0  0  0  0
  7 19  1  0  0  0  0
  8 18  4  0  0  0  0
 31  8  1  0  0  0  0
 15 10  1  0  0  0  0
 14 12  1  0  0  0  0
 12 15  1  0  0  0  0
 12 46  1  0  0  0  0
 33 14  1  0  0  0  0
 15 16  2  0  0  0  0
 18 26  4  0  0  0  0
 19 20  2  0  0  0  0
 19 24  1  0  0  0  0
 21 36  4  0  0  0  0
 21 43  4  0  0  0  0
 46 21  1  0  0  0  0
 26 28  4  0  0  0  0
 32 31  1  0  0  0  0
 32 33  1  0  0  0  0
 33 34  2  0  0  0  0
 36 38  4  0  0  0  0
 38 39  4  0  0  0  0
 39 41  4  0  0  0  0
 39 48  1  0  0  0  0
 41 43  4  0  0  0  0
 48 47  1  0  0  0  0
 46 44  1  0  0  0  0
 46 45  1  0  0  0  0
 43 42  1  0  0  0  0
 41 40  1  0  0  0  0
 38 37  1  0  0  0  0
 36 35  1  0  0  0  0
 31 29  1  0  0  0  0
 31 30  1  0  0  0  0
 28 27  1  0  0  0  0
 26 25  1  0  0  0  0
 24 22  1  0  0  0  0
 24 23  1  0  0  0  0
 18 17  1  0  0  0  0
 14 13  1  0  0  0  0
 12 11  1  0  0  0  0
 10  9  1  0  0  0  0
  7  5  1  0  0  0  0
  7  6  1  0  0  0  0
  4  3  1  0  0  0  0
  2  1  1  0  0  0  0
M  END
$$$$
